data_Wu_CsMPSA
_audit_creation_date               2019-02-12
_audit_creation_method
;
Olex2 1.2-beta
(compiled 2018.05.29 svn.r3508 for OlexSys, GUI svn.r5506)
;
_shelx_SHELXL_version_number       '2018/3'
_audit_contact_author_address      ?
_audit_contact_author_email        ?
_audit_contact_author_name         ''
_audit_contact_author_phone        ?
_publ_contact_author_id_orcid      ?
_publ_section_references
;
Dolomanov, O.V., Bourhis, L.J., Gildea, R.J, Howard, J.A.K. & Puschmann, H.
 (2009), J. Appl. Cryst. 42, 339-341.

Sheldrick, G.M. (2015). Acta Cryst. A71, 3-8.

Sheldrick, G.M. (2015). Acta Cryst. C71, 3-8.
;
_chemical_name_common              ?
_chemical_name_systematic          ?
_chemical_formula_moiety           'C5 H9 Cs F3 N O3 S'
_chemical_formula_sum              'C5 H9 Cs F3 N O3 S'
_chemical_formula_weight           353.10
_chemical_melting_point            ?
loop_
  _atom_type_symbol
  _atom_type_description
  _atom_type_scat_dispersion_real
  _atom_type_scat_dispersion_imag
  _atom_type_scat_source
 'C' 'C' 0.0033 0.0016 'International Tables Vol C Tables 4.2.6.8 and 6.1.1.4'
 'H' 'H' 0.0000 0.0000 'International Tables Vol C Tables 4.2.6.8 and 6.1.1.4'
 'Cs' 'Cs' -0.3680 2.1192
 'International Tables Vol C Tables 4.2.6.8 and 6.1.1.4'
 'F' 'F' 0.0171 0.0103 'International Tables Vol C Tables 4.2.6.8 and 6.1.1.4'
 'N' 'N' 0.0061 0.0033 'International Tables Vol C Tables 4.2.6.8 and 6.1.1.4'
 'O' 'O' 0.0106 0.0060 'International Tables Vol C Tables 4.2.6.8 and 6.1.1.4'
 'S' 'S' 0.1246 0.1234 'International Tables Vol C Tables 4.2.6.8 and 6.1.1.4'

_shelx_space_group_comment
;
The symmetry employed for this shelxl refinement is uniquely defined
by the following loop, which should always be used as a source of
symmetry information in preference to the above space-group names.
They are only intended as comments.
;
_space_group_crystal_system        'triclinic'
_space_group_IT_number             2
_space_group_name_H-M_alt          'P -1'
_space_group_name_Hall             '-P 1'
loop_
  _space_group_symop_operation_xyz
 'x, y, z'
 '-x, -y, -z'

_cell_length_a                     8.5617(5)
_cell_length_b                     11.1039(6)
_cell_length_c                     11.8651(7)
_cell_angle_alpha                  78.685(2)
_cell_angle_beta                   86.117(2)
_cell_angle_gamma                  89.591(2)
_cell_volume                       1103.51(11)
_cell_formula_units_Z              4
_cell_measurement_reflns_used      9917
_cell_measurement_temperature      250.01
_cell_measurement_theta_max        26.325
_cell_measurement_theta_min        3.022
_shelx_estimated_absorpt_T_max     0.746
_shelx_estimated_absorpt_T_min     0.401
_exptl_absorpt_coefficient_mu      3.569
_exptl_absorpt_correction_T_max    0.4908
_exptl_absorpt_correction_T_min    0.4089
_exptl_absorpt_correction_type     multi-scan
_exptl_absorpt_process_details    
 'SADABS-2016/2 (Bruker,2016/2) was used for absorption correction. wR2(int) was 0.0641 before and 0.0428 after correction. The Ratio of minimum to maximum transmission is 0.8331. The \l/2 correction factor is Not present.'
_exptl_absorpt_special_details     ?
_exptl_crystal_colour              Colorless
_exptl_crystal_colour_primary      Colorless
_exptl_crystal_density_diffrn      2.125
_exptl_crystal_density_meas        ?
_exptl_crystal_density_method      ?
_exptl_crystal_description         Plate
_exptl_crystal_F_000               672
_exptl_crystal_preparation         ?
_exptl_crystal_size_max            0.313
_exptl_crystal_size_mid            0.254
_exptl_crystal_size_min            0.087
_exptl_transmission_factor_max     ?
_exptl_transmission_factor_min     ?
_diffrn_reflns_av_R_equivalents    0.0310
_diffrn_reflns_av_unetI/netI       0.0266
_diffrn_reflns_Laue_measured_fraction_full  0.998
_diffrn_reflns_Laue_measured_fraction_max  0.995
_diffrn_reflns_limit_h_max         10
_diffrn_reflns_limit_h_min         -10
_diffrn_reflns_limit_k_max         13
_diffrn_reflns_limit_k_min         -13
_diffrn_reflns_limit_l_max         14
_diffrn_reflns_limit_l_min         -14
_diffrn_reflns_number              20794
_diffrn_reflns_point_group_measured_fraction_full  0.998
_diffrn_reflns_point_group_measured_fraction_max  0.995
_diffrn_reflns_theta_full          25.000
_diffrn_reflns_theta_max           26.384
_diffrn_reflns_theta_min           2.864
_diffrn_ambient_temperature        250.01
_diffrn_detector                   'Bruker Photon II area detector'
_diffrn_detector_area_resol_mean   10.5
_diffrn_detector_type              'CMOS area detector'
_diffrn_measured_fraction_theta_full  0.998
_diffrn_measured_fraction_theta_max  0.995
_diffrn_measurement_device         'Kappa Four-Circle Diffractometer'
_diffrn_measurement_device_type    'Bruker D8 Venture'
_diffrn_measurement_method         '\w and \f scans'
_diffrn_radiation_monochromator    'Curved-Graphite, Bruker TRIUMPH'
_diffrn_radiation_probe            X-ray
_diffrn_radiation_type             MoK\a
_diffrn_radiation_wavelength       0.71073
_diffrn_source                     'sealed tube'
_diffrn_source_type                fine-focus
_diffrn_special_details            ?
_diffrn_standards_number           0
_reflns_Friedel_coverage           0.000
_reflns_Friedel_fraction_full      .
_reflns_Friedel_fraction_max       .
_reflns_number_gt                  3665
_reflns_number_total               4498
_reflns_special_details
;
 Reflections were merged by SHELXL according to the crystal
 class for the calculation of statistics and refinement.
 
 _reflns_Friedel_fraction is defined as the number of unique
 Friedel pairs measured divided by the number that would be
 possible theoretically, ignoring centric projections and
 systematic absences.
;
_reflns_threshold_expression       'I > 2\s(I)'
_computing_cell_refinement         'SAINT v8.38A (Bruker, 2017)'
_computing_data_collection         'APEX3 v2017.3-0 (Bruker, 2017)'
_computing_data_reduction          'SAINT v8.38A (Bruker, 2017)'
_computing_molecular_graphics      'Olex2 (Dolomanov et al., 2009)'
_computing_publication_material    'Olex2 (Dolomanov et al., 2009)'
_computing_structure_refinement    'ShelXL (Sheldrick, 2015)'
_computing_structure_solution      'ShelXT (Sheldrick, 2015)'
_refine_diff_density_max           0.343
_refine_diff_density_min           -0.509
_refine_diff_density_rms           0.082
_refine_ls_extinction_coef         .
_refine_ls_extinction_method       none
_refine_ls_goodness_of_fit_ref     1.057
_refine_ls_hydrogen_treatment      constr
_refine_ls_matrix_type             full
_refine_ls_number_parameters       255
_refine_ls_number_reflns           4498
_refine_ls_number_restraints       0
_refine_ls_R_factor_all            0.0338
_refine_ls_R_factor_gt             0.0218
_refine_ls_restrained_S_all        1.057
_refine_ls_shift/su_max            0.001
_refine_ls_shift/su_mean           0.000
_refine_ls_structure_factor_coef   Fsqd
_refine_ls_weighting_details      
 'w=1/[\s^2^(Fo^2^)+(0.0128P)^2^+0.5245P] where P=(Fo^2^+2Fc^2^)/3'
_refine_ls_weighting_scheme        calc
_refine_ls_wR_factor_gt            0.0376
_refine_ls_wR_factor_ref           0.0413
_refine_special_details            ?
_olex2_refinement_description
;
1. Fixed Uiso
 At 1.2 times of:
  All C(H,H) groups
 At 1.5 times of:
  All C(H,H,H) groups
2.a Secondary CH2 refined with riding coordinates:
 C1(H1A,H1B), C2(H2B,H2A), C3(H3A,H3B), C6(H6A,H6B), C7(H7A,H7B), C8(H8A,H8B)
2.b Idealised Me refined as rotating group:
 C4(H4A,H4B,H4C), C9(H9A,H9B,H9C)
;
_atom_sites_solution_hydrogens     geom
_atom_sites_solution_primary       dual
_atom_sites_solution_secondary     difmap
loop_
  _atom_site_label
  _atom_site_type_symbol
  _atom_site_fract_x
  _atom_site_fract_y
  _atom_site_fract_z
  _atom_site_U_iso_or_equiv
  _atom_site_adp_type
  _atom_site_occupancy
  _atom_site_site_symmetry_order
  _atom_site_calc_flag
  _atom_site_refinement_flags_posn
  _atom_site_refinement_flags_adp
  _atom_site_refinement_flags_occupancy
  _atom_site_disorder_assembly
  _atom_site_disorder_group
 Cs1 Cs 0.33783(2) -0.09365(2) 0.89139(2) 0.03354(6) Uani 1 1 d . . . . .
 Cs2 Cs 0.83658(2) 0.63762(2) 0.89037(2) 0.03764(6) Uani 1 1 d . . . . .
 S1 S 0.33666(8) 0.58456(6) 0.83963(7) 0.03200(17) Uani 1 1 d . . . . .
 S2 S 0.84058(8) -0.01956(6) 0.84052(6) 0.02974(16) Uani 1 1 d . . . . .
 F1 F 0.2943(3) 0.76547(19) 0.6634(2) 0.0816(7) Uani 1 1 d . . . . .
 F2 F 0.3995(3) 0.6053(2) 0.61688(18) 0.0750(6) Uani 1 1 d . . . . .
 F3 F 0.1554(3) 0.6054(2) 0.6666(2) 0.0778(7) Uani 1 1 d . . . . .
 F4 F 0.8035(3) -0.1254(2) 0.6638(2) 0.0852(8) Uani 1 1 d . . . . .
 F5 F 0.9128(3) 0.0515(2) 0.61947(19) 0.0848(7) Uani 1 1 d . . . . .
 F6 F 0.6683(3) 0.0373(2) 0.6623(2) 0.0901(8) Uani 1 1 d . . . . .
 O1 O 0.3477(3) 0.13466(18) 0.69744(18) 0.0420(5) Uani 1 1 d . . . . .
 O2 O 0.4828(2) 0.64774(18) 0.84460(19) 0.0422(5) Uani 1 1 d . . . . .
 O3 O 0.2020(2) 0.62990(18) 0.89878(19) 0.0428(5) Uani 1 1 d . . . . .
 O4 O 0.8375(3) 0.48590(18) 0.6987(2) 0.0467(6) Uani 1 1 d . . . . .
 O5 O 0.7037(2) -0.08699(18) 0.89713(19) 0.0431(5) Uani 1 1 d . . . . .
 O6 O 0.9851(2) -0.08787(17) 0.84852(19) 0.0400(5) Uani 1 1 d . . . . .
 N1 N 0.3365(3) 0.4468(2) 0.8614(2) 0.0355(6) Uani 1 1 d . . . . .
 N2 N 0.8404(3) 0.1090(2) 0.8631(2) 0.0332(6) Uani 1 1 d . . . . .
 C1 C 0.4849(3) 0.3808(3) 0.8429(3) 0.0399(8) Uani 1 1 d . . . . .
 H1A H 0.545901 0.373350 0.910913 0.048 Uiso 1 1 calc R . . . .
 H1B H 0.547521 0.427277 0.776613 0.048 Uiso 1 1 calc R . . . .
 C2 C 0.4487(3) 0.2541(2) 0.8215(3) 0.0349(7) Uani 1 1 d . . . . .
 H2B H 0.543566 0.204168 0.829604 0.042 Uiso 1 1 calc R . . . .
 H2A H 0.369287 0.214804 0.880347 0.042 Uiso 1 1 calc R . . . .
 C3 C 0.3907(4) 0.2565(3) 0.7048(3) 0.0380(7) Uani 1 1 d . . . . .
 H3A H 0.299991 0.310805 0.693195 0.046 Uiso 1 1 calc R . . . .
 H3B H 0.473006 0.287679 0.644891 0.046 Uiso 1 1 calc R . . . .
 C4 C 0.3091(5) 0.1252(3) 0.5853(3) 0.0612(10) Uani 1 1 d . . . . .
 H4A H 0.399156 0.148586 0.531450 0.092 Uiso 1 1 calc GR . . . .
 H4B H 0.222494 0.179379 0.562766 0.092 Uiso 1 1 calc GR . . . .
 H4C H 0.279347 0.041186 0.584886 0.092 Uiso 1 1 calc GR . . . .
 C5 C 0.2942(4) 0.6431(3) 0.6900(3) 0.0467(8) Uani 1 1 d . . . . .
 C6 C 0.9879(3) 0.1816(3) 0.8431(3) 0.0387(7) Uani 1 1 d . . . . .
 H6A H 1.049429 0.162558 0.776180 0.046 Uiso 1 1 calc R . . . .
 H6B H 1.050305 0.160326 0.910377 0.046 Uiso 1 1 calc R . . . .
 C7 C 0.9498(3) 0.3171(2) 0.8221(3) 0.0366(7) Uani 1 1 d . . . . .
 H7A H 0.873361 0.332649 0.882861 0.044 Uiso 1 1 calc R . . . .
 H7B H 1.045010 0.363933 0.826598 0.044 Uiso 1 1 calc R . . . .
 C8 C 0.8848(4) 0.3614(3) 0.7071(3) 0.0398(7) Uani 1 1 d . . . . .
 H8A H 0.964720 0.355139 0.645428 0.048 Uiso 1 1 calc R . . . .
 H8B H 0.794951 0.310413 0.698902 0.048 Uiso 1 1 calc R . . . .
 C9 C 0.7834(5) 0.5379(3) 0.5901(3) 0.0662(11) Uani 1 1 d . . . . .
 H9A H 0.750258 0.621690 0.590000 0.099 Uiso 1 1 calc GR . . . .
 H9B H 0.695590 0.490093 0.575001 0.099 Uiso 1 1 calc GR . . . .
 H9C H 0.867081 0.537807 0.530830 0.099 Uiso 1 1 calc GR . . . .
 C10 C 0.8048(4) -0.0132(3) 0.6893(3) 0.0493(9) Uani 1 1 d . . . . .

loop_
  _atom_site_aniso_label
  _atom_site_aniso_U_11
  _atom_site_aniso_U_22
  _atom_site_aniso_U_33
  _atom_site_aniso_U_23
  _atom_site_aniso_U_13
  _atom_site_aniso_U_12
 Cs1 0.02849(10) 0.03013(10) 0.04272(12) -0.00908(8) -0.00187(8) -0.00003(7)
 Cs2 0.02929(11) 0.03159(10) 0.05226(14) -0.00929(9) -0.00102(9) -0.00077(8)
 S1 0.0252(4) 0.0312(4) 0.0415(4) -0.0119(3) -0.0018(3) -0.0023(3)
 S2 0.0249(4) 0.0294(4) 0.0351(4) -0.0066(3) -0.0029(3) 0.0004(3)
 F1 0.111(2) 0.0523(14) 0.0733(17) 0.0116(11) -0.0205(15) 0.0036(13)
 F2 0.0744(16) 0.1057(18) 0.0451(13) -0.0184(12) 0.0052(12) 0.0066(13)
 F3 0.0541(14) 0.1093(18) 0.0725(16) -0.0152(13) -0.0300(12) -0.0109(13)
 F4 0.124(2) 0.0778(16) 0.0690(16) -0.0438(13) -0.0292(15) 0.0043(14)
 F5 0.100(2) 0.1082(19) 0.0407(14) -0.0062(13) 0.0107(13) -0.0194(16)
 F6 0.0775(18) 0.125(2) 0.0749(17) -0.0255(15) -0.0463(14) 0.0360(15)
 O1 0.0557(14) 0.0334(11) 0.0378(13) -0.0075(9) -0.0077(11) -0.0018(10)
 O2 0.0312(12) 0.0380(11) 0.0606(15) -0.0162(10) -0.0058(10) -0.0075(9)
 O3 0.0344(12) 0.0427(12) 0.0540(15) -0.0186(11) 0.0048(10) 0.0048(9)
 O4 0.0495(14) 0.0343(12) 0.0539(15) -0.0022(10) -0.0057(12) -0.0011(10)
 O5 0.0331(12) 0.0388(12) 0.0562(15) -0.0077(10) 0.0023(11) -0.0086(9)
 O6 0.0286(11) 0.0365(11) 0.0558(14) -0.0098(10) -0.0086(10) 0.0081(9)
 N1 0.0261(13) 0.0308(13) 0.0498(17) -0.0097(11) 0.0025(12) -0.0010(10)
 N2 0.0276(13) 0.0320(13) 0.0409(15) -0.0111(11) 0.0015(11) -0.0014(10)
 C1 0.0304(17) 0.0388(17) 0.053(2) -0.0154(15) -0.0035(15) 0.0039(13)
 C2 0.0338(17) 0.0298(15) 0.0414(19) -0.0078(13) -0.0024(14) 0.0068(12)
 C3 0.0411(18) 0.0314(16) 0.0398(19) -0.0035(13) -0.0015(15) 0.0003(13)
 C4 0.078(3) 0.062(2) 0.047(2) -0.0190(19) -0.012(2) -0.003(2)
 C5 0.041(2) 0.051(2) 0.048(2) -0.0079(17) -0.0034(17) -0.0012(16)
 C6 0.0302(17) 0.0352(17) 0.050(2) -0.0064(14) -0.0047(15) -0.0044(13)
 C7 0.0341(17) 0.0323(16) 0.0444(19) -0.0099(14) -0.0027(14) -0.0059(13)
 C8 0.0402(19) 0.0371(17) 0.042(2) -0.0098(14) 0.0047(15) -0.0028(14)
 C9 0.065(3) 0.062(2) 0.059(3) 0.014(2) 0.004(2) 0.012(2)
 C10 0.050(2) 0.056(2) 0.046(2) -0.0173(18) -0.0101(18) 0.0020(17)

_geom_special_details
;
 All esds (except the esd in the dihedral angle between two l.s. planes)
 are estimated using the full covariance matrix.  The cell esds are taken
 into account individually in the estimation of esds in distances, angles
 and torsion angles; correlations between esds in cell parameters are only
 used when they are defined by crystal symmetry.  An approximate (isotropic)
 treatment of cell esds is used for estimating esds involving l.s. planes.
;
loop_
  _geom_bond_atom_site_label_1
  _geom_bond_atom_site_label_2
  _geom_bond_distance
  _geom_bond_site_symmetry_2
  _geom_bond_publ_flag
 Cs1 Cs1 4.6727(4) 2_657 ?
 Cs1 Cs2 5.1926(4) 1_545 ?
 Cs1 S1 3.7426(7) 1_545 ?
 Cs1 S2 3.8621(8) 2_657 ?
 Cs1 F1 3.422(2) 1_545 ?
 Cs1 O1 3.069(2) . ?
 Cs1 O2 3.252(2) 1_545 ?
 Cs1 O3 3.273(2) 1_545 ?
 Cs1 O5 3.139(2) . ?
 Cs1 O5 3.506(2) 2_657 ?
 Cs1 O6 3.0943(19) 1_455 ?
 Cs1 N2 3.170(2) 2_657 ?
 Cs2 Cs2 4.6566(4) 2_767 ?
 Cs2 S1 3.8545(8) 2_667 ?
 Cs2 S2 3.7358(7) 1_565 ?
 Cs2 F3 3.742(2) 1_655 ?
 Cs2 F4 3.398(3) 1_565 ?
 Cs2 O2 3.111(2) . ?
 Cs2 O3 3.490(2) 2_667 ?
 Cs2 O3 3.137(2) 1_655 ?
 Cs2 O4 3.084(2) . ?
 Cs2 O5 3.269(2) 1_565 ?
 Cs2 O6 3.2451(19) 1_565 ?
 Cs2 N1 3.177(3) 2_667 ?
 S1 O2 1.4487(19) . ?
 S1 O3 1.448(2) . ?
 S1 N1 1.500(2) . ?
 S1 C5 1.827(4) . ?
 S2 O5 1.447(2) . ?
 S2 O6 1.446(2) . ?
 S2 N2 1.504(2) . ?
 S2 C10 1.828(4) . ?
 F1 C5 1.333(4) . ?
 F2 C5 1.332(4) . ?
 F3 C5 1.327(4) . ?
 F4 C10 1.339(4) . ?
 F5 C10 1.315(4) . ?
 F6 C10 1.324(4) . ?
 O1 C3 1.425(3) . ?
 O1 C4 1.416(4) . ?
 O4 C8 1.424(3) . ?
 O4 C9 1.411(4) . ?
 N1 C1 1.488(4) . ?
 N2 C6 1.483(3) . ?
 C1 H1A 0.9800 . ?
 C1 H1B 0.9800 . ?
 C1 C2 1.515(4) . ?
 C2 H2B 0.9800 . ?
 C2 H2A 0.9800 . ?
 C2 C3 1.498(4) . ?
 C3 H3A 0.9800 . ?
 C3 H3B 0.9800 . ?
 C4 H4A 0.9700 . ?
 C4 H4B 0.9700 . ?
 C4 H4C 0.9700 . ?
 C6 H6A 0.9800 . ?
 C6 H6B 0.9800 . ?
 C6 C7 1.513(4) . ?
 C7 H7A 0.9800 . ?
 C7 H7B 0.9800 . ?
 C7 C8 1.499(4) . ?
 C8 H8A 0.9800 . ?
 C8 H8B 0.9800 . ?
 C9 H9A 0.9700 . ?
 C9 H9B 0.9700 . ?
 C9 H9C 0.9700 . ?

loop_
  _geom_angle_atom_site_label_1
  _geom_angle_atom_site_label_2
  _geom_angle_atom_site_label_3
  _geom_angle
  _geom_angle_site_symmetry_1
  _geom_angle_site_symmetry_3
  _geom_angle_publ_flag
 Cs1 Cs1 Cs2 78.460(6) 2_657 1_545 ?
 S1 Cs1 Cs1 130.198(13) 1_545 2_657 ?
 S1 Cs1 Cs2 56.563(12) 1_545 1_545 ?
 S1 Cs1 S2 127.062(17) 1_545 2_657 ?
 S2 Cs1 Cs1 60.673(11) 2_657 2_657 ?
 S2 Cs1 Cs2 123.901(12) 2_657 1_545 ?
 F1 Cs1 Cs1 149.42(5) 1_545 2_657 ?
 F1 Cs1 Cs2 77.41(4) 1_545 1_545 ?
 F1 Cs1 S1 43.00(4) 1_545 1_545 ?
 F1 Cs1 S2 149.89(5) 1_545 2_657 ?
 F1 Cs1 O5 165.76(5) 1_545 2_657 ?
 O1 Cs1 Cs1 91.79(4) . 2_657 ?
 O1 Cs1 Cs2 113.79(4) . 1_545 ?
 O1 Cs1 S1 123.52(4) . 1_545 ?
 O1 Cs1 S2 104.75(4) . 2_657 ?
 O1 Cs1 F1 81.10(5) . 1_545 ?
 O1 Cs1 O2 120.42(6) . 1_545 ?
 O1 Cs1 O3 130.27(5) . 1_545 ?
 O1 Cs1 O5 90.81(6) . . ?
 O1 Cs1 O5 91.66(5) . 2_657 ?
 O1 Cs1 O6 82.68(6) . 1_455 ?
 O1 Cs1 N2 124.51(6) . 2_657 ?
 O2 Cs1 Cs1 111.47(4) 1_545 2_657 ?
 O2 Cs1 Cs2 34.42(3) 1_545 1_545 ?
 O2 Cs1 S1 22.53(3) 1_545 1_545 ?
 O2 Cs1 S2 134.69(4) 1_545 2_657 ?
 O2 Cs1 F1 50.98(5) 1_545 1_545 ?
 O2 Cs1 O3 44.01(5) 1_545 1_545 ?
 O2 Cs1 O5 141.94(5) 1_545 2_657 ?
 O3 Cs1 Cs1 136.90(4) 1_545 2_657 ?
 O3 Cs1 Cs2 76.03(4) 1_545 1_545 ?
 O3 Cs1 S1 22.57(4) 1_545 1_545 ?
 O3 Cs1 S2 108.13(4) 1_545 2_657 ?
 O3 Cs1 F1 52.41(5) 1_545 1_545 ?
 O3 Cs1 O5 128.92(5) 1_545 2_657 ?
 O5 Cs1 Cs1 48.61(4) . 2_657 ?
 O5 Cs1 Cs1 42.20(3) 2_657 2_657 ?
 O5 Cs1 Cs2 116.81(4) 2_657 1_545 ?
 O5 Cs1 Cs2 36.72(4) . 1_545 ?
 O5 Cs1 S1 92.95(4) . 1_545 ?
 O5 Cs1 S1 144.51(4) 2_657 1_545 ?
 O5 Cs1 S2 21.98(3) 2_657 2_657 ?
 O5 Cs1 S2 107.85(4) . 2_657 ?
 O5 Cs1 F1 101.48(6) . 1_545 ?
 O5 Cs1 O2 70.46(5) . 1_545 ?
 O5 Cs1 O3 112.67(5) . 1_545 ?
 O5 Cs1 O5 90.81(5) . 2_657 ?
 O5 Cs1 N2 113.38(6) . 2_657 ?
 O6 Cs1 Cs1 136.02(4) 1_455 2_657 ?
 O6 Cs1 Cs2 143.17(4) 1_455 1_545 ?
 O6 Cs1 S1 86.71(4) 1_455 1_545 ?
 O6 Cs1 S2 78.59(4) 1_455 2_657 ?
 O6 Cs1 F1 72.84(6) 1_455 1_545 ?
 O6 Cs1 O2 108.76(5) 1_455 1_545 ?
 O6 Cs1 O3 68.78(5) 1_455 1_545 ?
 O6 Cs1 O5 94.17(5) 1_455 2_657 ?
 O6 Cs1 O5 171.91(6) 1_455 . ?
 O6 Cs1 N2 74.45(6) 1_455 2_657 ?
 N2 Cs1 Cs1 73.24(4) 2_657 2_657 ?
 N2 Cs1 Cs2 114.69(4) 2_657 1_545 ?
 N2 Cs1 S1 105.07(4) 2_657 1_545 ?
 N2 Cs1 S2 21.99(4) 2_657 2_657 ?
 N2 Cs1 F1 134.65(6) 2_657 1_545 ?
 N2 Cs1 O2 114.72(6) 2_657 1_545 ?
 N2 Cs1 O3 86.72(5) 2_657 1_545 ?
 N2 Cs1 O5 42.30(5) 2_657 2_657 ?
 S1 Cs2 Cs2 60.374(12) 2_667 2_767 ?
 S2 Cs2 Cs2 128.419(13) 1_565 2_767 ?
 S2 Cs2 S1 126.830(16) 1_565 2_667 ?
 S2 Cs2 F3 96.90(4) 1_565 1_655 ?
 F3 Cs2 Cs2 79.61(4) 1_655 2_767 ?
 F3 Cs2 S1 132.78(4) 1_655 2_667 ?
 F4 Cs2 Cs2 147.69(5) 1_565 2_767 ?
 F4 Cs2 S1 151.79(5) 1_565 2_667 ?
 F4 Cs2 S2 43.02(3) 1_565 1_565 ?
 F4 Cs2 F3 72.39(6) 1_565 1_655 ?
 F4 Cs2 O3 167.51(5) 1_565 2_667 ?
 O2 Cs2 Cs2 135.99(4) . 2_767 ?
 O2 Cs2 S1 79.14(4) . 2_667 ?
 O2 Cs2 S2 88.70(4) . 1_565 ?
 O2 Cs2 F3 123.54(5) . 1_655 ?
 O2 Cs2 F4 74.76(6) . 1_565 ?
 O2 Cs2 O3 171.88(6) . 1_655 ?
 O2 Cs2 O3 94.00(5) . 2_667 ?
 O2 Cs2 O5 70.58(5) . 1_565 ?
 O2 Cs2 O6 110.81(5) . 1_565 ?
 O2 Cs2 N1 75.83(6) . 2_667 ?
 O3 Cs2 Cs2 42.34(3) 2_667 2_767 ?
 O3 Cs2 Cs2 48.53(4) 1_655 2_767 ?
 O3 Cs2 S1 107.30(4) 1_655 2_667 ?
 O3 Cs2 S1 22.03(3) 2_667 2_667 ?
 O3 Cs2 S2 91.14(4) 1_655 1_565 ?
 O3 Cs2 S2 144.22(3) 2_667 1_565 ?
 O3 Cs2 F3 110.83(5) 2_667 1_655 ?
 O3 Cs2 F3 48.43(5) 1_655 1_655 ?
 O3 Cs2 F4 99.70(6) 1_655 1_565 ?
 O3 Cs2 O3 90.87(5) 1_655 2_667 ?
 O3 Cs2 O5 111.02(5) 1_655 1_565 ?
 O3 Cs2 O6 68.65(5) 1_655 1_565 ?
 O3 Cs2 N1 112.02(6) 1_655 2_667 ?
 O4 Cs2 Cs2 92.82(4) . 2_767 ?
 O4 Cs2 S1 103.88(4) . 2_667 ?
 O4 Cs2 S2 124.80(4) . 1_565 ?
 O4 Cs2 F3 51.12(5) . 1_655 ?
 O4 Cs2 F4 82.11(5) . 1_565 ?
 O4 Cs2 O2 80.07(6) . . ?
 O4 Cs2 O3 90.71(5) . 2_667 ?
 O4 Cs2 O3 93.39(5) . 1_655 ?
 O4 Cs2 O5 130.48(6) . 1_565 ?
 O4 Cs2 O6 122.67(6) . 1_565 ?
 O4 Cs2 N1 123.70(6) . 2_667 ?
 O5 Cs2 Cs2 135.77(4) 1_565 2_767 ?
 O5 Cs2 S1 108.43(4) 1_565 2_667 ?
 O5 Cs2 S2 22.61(4) 1_565 1_565 ?
 O5 Cs2 F3 117.93(5) 1_565 1_655 ?
 O5 Cs2 F4 52.52(5) 1_565 1_565 ?
 O5 Cs2 O3 129.33(5) 1_565 2_667 ?
 O6 Cs2 Cs2 109.45(4) 1_565 2_767 ?
 O6 Cs2 S1 133.24(4) 1_565 2_667 ?
 O6 Cs2 S2 22.52(3) 1_565 1_565 ?
 O6 Cs2 F3 81.08(5) 1_565 1_655 ?
 O6 Cs2 F4 51.09(5) 1_565 1_565 ?
 O6 Cs2 O3 140.50(5) 1_565 2_667 ?
 O6 Cs2 O5 43.99(5) 1_565 1_565 ?
 N1 Cs2 Cs2 72.51(4) 2_667 2_767 ?
 N1 Cs2 S1 22.05(4) 2_667 2_667 ?
 N1 Cs2 S2 104.78(4) 2_667 1_565 ?
 N1 Cs2 F3 151.53(6) 2_667 1_655 ?
 N1 Cs2 F4 135.97(6) 2_667 1_565 ?
 N1 Cs2 O3 42.44(5) 2_667 2_667 ?
 N1 Cs2 O5 86.98(6) 2_667 1_565 ?
 N1 Cs2 O6 113.38(6) 2_667 1_565 ?
 Cs1 S1 Cs2 110.330(19) 1_565 2_667 ?
 O2 S1 Cs1 59.34(8) . 1_565 ?
 O2 S1 Cs2 119.49(10) . 2_667 ?
 O2 S1 N1 118.37(13) . . ?
 O2 S1 C5 100.64(15) . . ?
 O3 S1 Cs1 60.19(8) . 1_565 ?
 O3 S1 Cs2 64.67(9) . 2_667 ?
 O3 S1 O2 115.16(12) . . ?
 O3 S1 N1 111.04(13) . . ?
 O3 S1 C5 100.25(15) . . ?
 N1 S1 Cs1 160.99(10) . 1_565 ?
 N1 S1 Cs2 52.66(10) . 2_667 ?
 N1 S1 C5 108.93(15) . . ?
 C5 S1 Cs1 89.70(11) . 1_565 ?
 C5 S1 Cs2 139.87(11) . 2_667 ?
 Cs2 S2 Cs1 110.736(19) 1_545 2_657 ?
 O5 S2 Cs1 65.02(9) . 2_657 ?
 O5 S2 Cs2 60.26(8) . 1_545 ?
 O5 S2 N2 110.77(13) . . ?
 O5 S2 C10 100.81(15) . . ?
 O6 S2 Cs1 119.10(9) . 2_657 ?
 O6 S2 Cs2 59.29(8) . 1_545 ?
 O6 S2 O5 115.01(12) . . ?
 O6 S2 N2 118.50(12) . . ?
 O6 S2 C10 100.59(15) . . ?
 N2 S2 Cs1 52.14(9) . 2_657 ?
 N2 S2 Cs2 161.02(10) . 1_545 ?
 N2 S2 C10 108.83(15) . . ?
 C10 S2 Cs1 140.29(12) . 2_657 ?
 C10 S2 Cs2 89.77(11) . 1_545 ?
 C5 F1 Cs1 114.51(19) . 1_565 ?
 C5 F3 Cs2 113.3(2) . 1_455 ?
 C10 F4 Cs2 115.4(2) . 1_545 ?
 C3 O1 Cs1 127.19(16) . . ?
 C4 O1 Cs1 120.29(18) . . ?
 C4 O1 C3 112.5(2) . . ?
 Cs2 O2 Cs1 109.37(5) . 1_565 ?
 S1 O2 Cs1 98.13(10) . 1_565 ?
 S1 O2 Cs2 149.62(12) . . ?
 Cs1 O3 Cs2 134.43(7) 1_565 2_667 ?
 Cs2 O3 Cs1 109.85(6) 1_455 1_565 ?
 Cs2 O3 Cs2 89.13(5) 1_455 2_667 ?
 S1 O3 Cs1 97.24(9) . 1_565 ?
 S1 O3 Cs2 139.04(11) . 1_455 ?
 S1 O3 Cs2 93.30(10) . 2_667 ?
 C8 O4 Cs2 126.61(17) . . ?
 C9 O4 Cs2 120.3(2) . . ?
 C9 O4 C8 113.1(3) . . ?
 Cs1 O5 Cs1 89.19(5) . 2_657 ?
 Cs1 O5 Cs2 108.24(5) . 1_545 ?
 Cs2 O5 Cs1 134.67(7) 1_545 2_657 ?
 S2 O5 Cs1 93.00(9) . 2_657 ?
 S2 O5 Cs1 141.63(12) . . ?
 S2 O5 Cs2 97.14(10) . 1_545 ?
 Cs1 O6 Cs2 111.69(6) 1_655 1_545 ?
 S2 O6 Cs1 148.21(11) . 1_655 ?
 S2 O6 Cs2 98.19(9) . 1_545 ?
 S1 N1 Cs2 105.29(11) . 2_667 ?
 C1 N1 Cs2 114.38(18) . 2_667 ?
 C1 N1 S1 119.57(19) . . ?
 S2 N2 Cs1 105.87(11) . 2_657 ?
 C6 N2 Cs1 115.51(17) . 2_657 ?
 C6 N2 S2 119.48(19) . . ?
 N1 C1 H1A 109.7 . . ?
 N1 C1 H1B 109.7 . . ?
 N1 C1 C2 109.8(2) . . ?
 H1A C1 H1B 108.2 . . ?
 C2 C1 H1A 109.7 . . ?
 C2 C1 H1B 109.7 . . ?
 C1 C2 H2B 108.9 . . ?
 C1 C2 H2A 108.9 . . ?
 H2B C2 H2A 107.8 . . ?
 C3 C2 C1 113.2(2) . . ?
 C3 C2 H2B 108.9 . . ?
 C3 C2 H2A 108.9 . . ?
 O1 C3 C2 108.5(2) . . ?
 O1 C3 H3A 110.0 . . ?
 O1 C3 H3B 110.0 . . ?
 C2 C3 H3A 110.0 . . ?
 C2 C3 H3B 110.0 . . ?
 H3A C3 H3B 108.4 . . ?
 O1 C4 H4A 109.5 . . ?
 O1 C4 H4B 109.5 . . ?
 O1 C4 H4C 109.5 . . ?
 H4A C4 H4B 109.5 . . ?
 H4A C4 H4C 109.5 . . ?
 H4B C4 H4C 109.5 . . ?
 F1 C5 S1 112.5(2) . . ?
 F2 C5 S1 111.5(2) . . ?
 F2 C5 F1 106.7(3) . . ?
 F3 C5 S1 112.0(2) . . ?
 F3 C5 F1 106.9(3) . . ?
 F3 C5 F2 106.7(3) . . ?
 N2 C6 H6A 109.8 . . ?
 N2 C6 H6B 109.8 . . ?
 N2 C6 C7 109.4(2) . . ?
 H6A C6 H6B 108.2 . . ?
 C7 C6 H6A 109.8 . . ?
 C7 C6 H6B 109.8 . . ?
 C6 C7 H7A 109.1 . . ?
 C6 C7 H7B 109.1 . . ?
 H7A C7 H7B 107.8 . . ?
 C8 C7 C6 112.5(2) . . ?
 C8 C7 H7A 109.1 . . ?
 C8 C7 H7B 109.1 . . ?
 O4 C8 C7 109.0(2) . . ?
 O4 C8 H8A 109.9 . . ?
 O4 C8 H8B 109.9 . . ?
 C7 C8 H8A 109.9 . . ?
 C7 C8 H8B 109.9 . . ?
 H8A C8 H8B 108.3 . . ?
 O4 C9 H9A 109.5 . . ?
 O4 C9 H9B 109.5 . . ?
 O4 C9 H9C 109.5 . . ?
 H9A C9 H9B 109.5 . . ?
 H9A C9 H9C 109.5 . . ?
 H9B C9 H9C 109.5 . . ?
 F4 C10 S2 111.7(3) . . ?
 F5 C10 S2 111.8(2) . . ?
 F5 C10 F4 107.2(3) . . ?
 F5 C10 F6 106.8(3) . . ?
 F6 C10 S2 112.3(2) . . ?
 F6 C10 F4 106.7(3) . . ?

_shelx_res_file
;
TITL Wu_CsMPSA in P-1
    wu_csmpsa.res
    created by SHELXL-2018/3 at 16:20:26 on 12-Feb-2019
REM SHELXT solution in P-1
REM R1 0.095, Rweak 0.004, Alpha 0.072, Orientation as input
REM Formula found by SHELXT: C10 N2 O4 F8 S2 Cs2
CELL 0.71073 8.5617 11.1039 11.8651 78.685 86.117 89.591
ZERR 4 0.0005 0.0006 0.0007 0.002 0.002 0.002
LATT 1
SFAC C H Cs F N O S
UNIT 20 36 4 12 4 12 4

L.S. 10 0 115
PLAN  20
SIZE 0.313 0.254 0.087
TEMP -23.14
FREE Cs1 C2
FREE Cs2 C7
BOND $H
list 4
fmap 2
acta 50
REM <olex2.extras>
REM <HklSrc "%.\\Wu_CsMPSA.hkl">
REM </olex2.extras>

WGHT    0.012800    0.524500
FVAR       0.36128
CS1   3    0.337833   -0.093645    0.891388    11.00000    0.02849    0.03013 =
         0.04272   -0.00908   -0.00187   -0.00003
CS2   3    0.836580    0.637624    0.890366    11.00000    0.02929    0.03159 =
         0.05226   -0.00929   -0.00102   -0.00077
S1    7    0.336662    0.584564    0.839629    11.00000    0.02518    0.03118 =
         0.04153   -0.01186   -0.00176   -0.00225
S2    7    0.840575   -0.019564    0.840517    11.00000    0.02495    0.02941 =
         0.03511   -0.00662   -0.00292    0.00040
F1    4    0.294277    0.765465    0.663376    11.00000    0.11129    0.05229 =
         0.07327    0.01164   -0.02053    0.00362
F2    4    0.399548    0.605315    0.616879    11.00000    0.07440    0.10567 =
         0.04512   -0.01842    0.00516    0.00660
F3    4    0.155365    0.605436    0.666603    11.00000    0.05413    0.10933 =
         0.07252   -0.01521   -0.03005   -0.01088
F4    4    0.803481   -0.125399    0.663802    11.00000    0.12405    0.07782 =
         0.06899   -0.04377   -0.02923    0.00426
F5    4    0.912767    0.051474    0.619471    11.00000    0.10025    0.10816 =
         0.04069   -0.00622    0.01071   -0.01939
F6    4    0.668318    0.037315    0.662251    11.00000    0.07747    0.12550 =
         0.07491   -0.02554   -0.04633    0.03598
O1    6    0.347651    0.134660    0.697442    11.00000    0.05571    0.03343 =
         0.03780   -0.00755   -0.00768   -0.00184
O2    6    0.482755    0.647736    0.844603    11.00000    0.03119    0.03802 =
         0.06061   -0.01616   -0.00583   -0.00753
O3    6    0.201964    0.629902    0.898783    11.00000    0.03440    0.04268 =
         0.05402   -0.01863    0.00483    0.00483
O4    6    0.837506    0.485902    0.698664    11.00000    0.04952    0.03428 =
         0.05385   -0.00222   -0.00567   -0.00107
O5    6    0.703654   -0.086992    0.897127    11.00000    0.03313    0.03876 =
         0.05615   -0.00774    0.00229   -0.00859
O6    6    0.985117   -0.087874    0.848524    11.00000    0.02857    0.03654 =
         0.05581   -0.00982   -0.00862    0.00810
N1    5    0.336545    0.446839    0.861441    11.00000    0.02609    0.03077 =
         0.04977   -0.00972    0.00249   -0.00101
N2    5    0.840418    0.109014    0.863127    11.00000    0.02760    0.03202 =
         0.04093   -0.01106    0.00153   -0.00141
C1    1    0.484933    0.380753    0.842923    11.00000    0.03035    0.03875 =
         0.05334   -0.01544   -0.00350    0.00389
AFIX  23
H1A   2    0.545901    0.373350    0.910913    11.00000   -1.20000
H1B   2    0.547521    0.427277    0.776613    11.00000   -1.20000
AFIX   0
C2    1    0.448680    0.254148    0.821522    11.00000    0.03381    0.02979 =
         0.04139   -0.00779   -0.00241    0.00684
AFIX  23
H2B   2    0.543566    0.204168    0.829604    11.00000   -1.20000
H2A   2    0.369287    0.214804    0.880347    11.00000   -1.20000
AFIX   0
C3    1    0.390679    0.256514    0.704762    11.00000    0.04106    0.03141 =
         0.03982   -0.00354   -0.00150    0.00028
AFIX  23
H3A   2    0.299991    0.310805    0.693195    11.00000   -1.20000
H3B   2    0.473006    0.287679    0.644891    11.00000   -1.20000
AFIX   0
C4    1    0.309129    0.125209    0.585308    11.00000    0.07824    0.06245 =
         0.04746   -0.01900   -0.01186   -0.00305
AFIX 137
H4A   2    0.399156    0.148586    0.531450    11.00000   -1.50000
H4B   2    0.222494    0.179379    0.562766    11.00000   -1.50000
H4C   2    0.279347    0.041186    0.584886    11.00000   -1.50000
AFIX   0
C5    1    0.294181    0.643086    0.689968    11.00000    0.04131    0.05073 =
         0.04755   -0.00788   -0.00343   -0.00116
C6    1    0.987910    0.181623    0.843099    11.00000    0.03016    0.03523 =
         0.05025   -0.00639   -0.00469   -0.00440
AFIX  23
H6A   2    1.049429    0.162558    0.776180    11.00000   -1.20000
H6B   2    1.050305    0.160326    0.910377    11.00000   -1.20000
AFIX   0
C7    1    0.949778    0.317135    0.822119    11.00000    0.03413    0.03231 =
         0.04440   -0.00988   -0.00266   -0.00590
AFIX  23
H7A   2    0.873361    0.332649    0.882861    11.00000   -1.20000
H7B   2    1.045010    0.363933    0.826598    11.00000   -1.20000
AFIX   0
C8    1    0.884828    0.361403    0.707144    11.00000    0.04016    0.03712 =
         0.04197   -0.00985    0.00471   -0.00283
AFIX  23
H8A   2    0.964720    0.355139    0.645428    11.00000   -1.20000
H8B   2    0.794951    0.310413    0.698902    11.00000   -1.20000
AFIX   0
C9    1    0.783377    0.537941    0.590141    11.00000    0.06550    0.06225 =
         0.05880    0.01392    0.00438    0.01196
AFIX 137
H9A   2    0.750258    0.621690    0.590000    11.00000   -1.50000
H9B   2    0.695590    0.490093    0.575001    11.00000   -1.50000
H9C   2    0.867081    0.537807    0.530830    11.00000   -1.50000
AFIX   0
C10   1    0.804752   -0.013179    0.689348    11.00000    0.04957    0.05604 =
         0.04623   -0.01726   -0.01005    0.00202
HKLF 4




REM  Wu_CsMPSA in P-1
REM wR2 = 0.0413, GooF = S = 1.057, Restrained GooF = 1.057 for all data
REM R1 = 0.0218 for 3665 Fo > 4sig(Fo) and 0.0338 for all 4498 data
REM 255 parameters refined using 0 restraints

END

WGHT      0.0128      0.5245

REM Highest difference peak  0.343,  deepest hole -0.509,  1-sigma level  0.082
Q1    1   0.5000  0.0000  0.5000  10.50000  0.05    0.34
Q2    1   0.8111  0.0661  0.8180  11.00000  0.05    0.31
Q3    1   0.8782  0.6207  1.0018  11.00000  0.05    0.31
Q4    1   0.2809  0.7580  0.7974  11.00000  0.05    0.30
Q5    1   0.7291 -0.0113  0.9612  11.00000  0.05    0.30
Q6    1   0.8194  0.0024  0.7604  11.00000  0.05    0.30
Q7    1   0.8346  0.6637  0.8127  11.00000  0.05    0.29
Q8    1   0.8591  0.0457  0.8851  11.00000  0.05    0.28
Q9    1   0.8493  0.5586  0.8200  11.00000  0.05    0.28
Q10   1   0.4383  0.8034  0.7805  11.00000  0.05    0.28
Q11   1   0.0849  0.5830  0.9881  11.00000  0.05    0.28
Q12   1   0.3454  0.5013  0.8882  11.00000  0.05    0.28
Q13   1   0.8556  0.0896  0.8022  11.00000  0.05    0.27
Q14   1   1.0644  0.4336  0.9422  11.00000  0.05    0.26
Q15   1   0.8371  0.5060  0.4271  11.00000  0.05    0.26
Q16   1   1.0211  0.1979  0.9819  11.00000  0.05    0.26
Q17   1   0.4971  0.3725  0.5422  11.00000  0.05    0.26
Q18   1   0.1375  0.3263  0.7071  11.00000  0.05    0.26
Q19   1   0.4444  0.2592  0.7557  11.00000  0.05    0.26
Q20   1   0.6614  0.1289  0.7467  11.00000  0.05    0.26
;
_shelx_res_checksum                98457
_shelx_hkl_file
;
  -2   0   0 2746.93   50.69
  -2   0   0 2680.83   50.59
  -2   0   0 2673.83   51.09
  -2   0   0 2632.84   48.60
  -2   0   0 2788.82   51.49
   2   0   0 2747.33   50.79
   2   0   0 2694.13   50.59
   2   0   0 2728.03   51.29
   2   0   0 2723.33   48.80
   2   0   0 2784.52   51.49
  -3   0   0    2.30    1.80
  -3   0   0    0.60    2.90
  -3   0   0    0.60    2.80
  -3   0   0    5.00    3.20
  -3   0   0   -0.90    2.70
   3   0   0    5.30    3.10
   3   0   0    2.60    2.20
   3   0   0    1.20    2.80
   3   0   0   -0.60    2.80
   3   0   0    2.90    2.90
  -4   0   0 1583.04   37.40
  -4   0   0 1569.74   35.70
  -4   0   0 1599.94   36.00
  -4   0   0 1576.94   37.30
  -4   0   0 1528.15   32.50
   4   0   0 1539.75   35.70
   4   0   0 1562.94   34.90
   4   0   0 1640.74   36.90
   4   0   0 1586.24   37.00
   4   0   0 1599.54   37.40
  -5   0   0   -2.90    2.40
  -5   0   0    0.60    3.70
  -5   0   0    1.30    3.90
  -5   0   0   -0.60    2.40
  -5   0   0   -5.90    2.60
   5   0   0    0.90    3.20
   5   0   0    2.50    3.50
   5   0   0    4.80    3.40
  -6   0   0 3383.76   74.89
  -6   0   0 3446.06   72.79
  -6   0   0 3505.55   74.19
  -6   0   0 3411.16   74.49
  -6   0   0 3532.85   67.49
   6   0   0 3399.06   72.79
   6   0   0 3535.25   81.79
  -7   0   0   -2.40    4.10
  -7   0   0    0.30    2.60
  -7   0   0    5.40    4.10
   7   0   0   -3.00    3.90
  -8   0   0  135.89   14.60
  -8   0   0  139.89   12.10
  -8   0   0  141.09    9.40
   8   0   0  128.49   11.90
  -9   0   0   -3.80    3.20
  -9   0   0    3.80    5.90
  -9   0   0   -7.40    4.10
   9   0   0   -1.70    5.10
 -10   0   0  184.48   11.20
 -10   0   0  171.68   16.80
 -10   0   0  206.78   17.10
  10   0   0  202.08   17.20
  10  -1   0  114.89   13.00
 -10   1   0  125.19   14.20
 -10   1   0  114.29   13.10
 -10   1   0   97.09    8.60
   9  -1   0  121.39   13.50
  -9   1   0  102.89   12.00
  -9   1   0  141.79    9.20
  -9   1   0   93.49   12.50
   8  -1   0  260.27   15.70
  -8   1   0  247.68   17.80
  -8   1   0  251.67   16.10
  -8   1   0  266.07   11.90
   7  -1   0   56.89    8.40
  -7   1   0   59.19    8.50
  -7   1   0   50.79    8.10
   6  -1   0    8.20    4.20
   6  -1   0    7.90    3.60
  -6   1   0    2.90    3.90
  -6   1   0    1.70    2.50
  -6   1   0    7.80    4.70
   5  -1   0  145.09    9.80
   5  -1   0  147.19    9.90
   5  -1   0  138.09   16.20
  -5   1   0  138.69    6.90
  -5   1   0  156.58   12.70
  -5   1   0  159.98   10.80
  -5   1   0  142.69    9.70
   4  -1   0 1079.19   28.60
   4  -1   0 1112.49   27.70
   4  -1   0 1059.89   27.20
  -4   1   0 1128.59   38.40
  -4   1   0 1054.79   30.40
  -4   1   0  991.50   22.60
  -4   1   0 1061.89   28.30
  -4   1   0 1038.00   26.70
   3  -1   0 2231.58   46.00
   3  -1   0 2237.18   44.70
   3  -1   0 2184.78   44.70
  -3   1   0 2244.18   46.00
  -3   1   0 2194.38   41.10
  -3   1   0 2181.18   44.50
  -3   1   0 2226.08   44.80
  -3   1   0 2259.87   46.20
   2  -1   0  541.75   13.90
   2  -1   0  559.54   14.90
   2  -1   0  564.44   14.10
  -2   1   0  555.84   14.20
  -2   1   0  567.84   15.20
  -2   1   0  570.64   15.10
  -2   1   0  561.84   14.20
  -1   1   0  104.39    4.60
  -1   1   0  101.79    4.20
  -1  -1   0   25.60    2.60
  -1  -1   0   22.60    2.80
   1   1   0   24.80    2.40
   1   1   0   28.70    3.80
   1   1   0   23.20    2.30
  -2  -1   0 1205.88   25.30
  -2  -1   0 1240.68   25.10
  -2  -1   0 1244.38   26.00
  -2  -1   0 1240.98   25.40
  -2  -1   0 1262.07   26.60
   2   1   0 1234.58   26.30
   2   1   0 1228.18   25.90
   2   1   0 1228.98   25.60
   2   1   0 1209.88   25.50
   2   1   0 1252.87   25.10
  -3  -1   0 2464.15   49.10
  -3  -1   0 2541.45   50.69
  -3  -1   0 2449.25   49.00
  -3  -1   0 2582.84   50.39
  -3  -1   0 2400.56   47.70
   3   1   0 2519.85   50.19
   3   1   0 2596.44   50.69
   3   1   0 2485.75   50.39
   3   1   0 2580.14   49.90
   3   1   0 2444.36   49.20
  -4  -1   0  781.52   23.20
  -4  -1   0  778.42   21.70
  -4  -1   0  784.32   21.70
  -4  -1   0  763.62   20.00
  -4  -1   0  802.32   22.70
   4   1   0  776.62   21.80
   4   1   0  785.42   19.90
   4   1   0  804.62   22.80
   4   1   0  814.82   22.50
   4   1   0  779.62   22.70
  -5  -1   0   71.19    8.20
  -5  -1   0   76.69    7.40
  -5  -1   0   83.69    6.50
  -5  -1   0   81.89    7.90
  -5  -1   0   68.19    6.90
   5   1   0   78.49    8.00
   5   1   0   77.69    6.60
   5   1   0   77.89    7.60
   5   1   0   67.79    7.80
  -6  -1   0   52.59    7.20
  -6  -1   0   41.40    5.30
  -6  -1   0   54.29    7.20
  -6  -1   0   48.80    7.50
  -6  -1   0   46.30    6.90
   6   1   0   41.80    8.10
   6   1   0   52.59    5.80
   6   1   0   54.59    7.70
  -7  -1   0   97.09    9.70
  -7  -1   0   82.69   10.10
  -7  -1   0   80.19    7.00
   7   1   0   88.69    9.80
  -8  -1   0  285.67   18.30
  -8  -1   0  283.87   16.80
  -8  -1   0  303.67   14.50
   8   1   0  325.17   18.90
  -9  -1   0  154.98   14.40
  -9  -1   0  127.59   13.90
  -9  -1   0  134.69   10.10
   9   1   0  136.49   13.10
 -10  -1   0   55.89   11.10
 -10  -1   0   70.09   10.80
  10   1   0   83.79   11.80
  10  -2   0   -1.40    6.00
 -10   2   0   12.90    3.60
 -10   2   0   19.30    7.30
 -10   2   0    2.60    5.40
   9  -2   0    9.10    5.80
  -9   2   0    8.80    6.50
  -9   2   0    3.10    5.20
   8  -2   0   17.00    5.80
  -8   2   0   11.20    4.30
  -8   2   0   11.90    6.20
  -8   2   0   16.20    6.00
   7  -2   0  526.05   21.70
  -7   2   0  535.55   25.60
  -7   2   0  522.55   16.10
   6  -2   0  236.68   13.20
   6  -2   0  257.27   13.30
  -6   2   0  243.98    9.40
  -6   2   0  254.57   15.00
  -6   2   0  243.48   13.60
   5  -2   0  872.31   26.50
   5  -2   0  841.72   24.50
   5  -2   0  898.91   25.50
  -5   2   0  864.21   25.40
  -5   2   0  837.82   19.90
  -5   2   0  819.52   25.00
  -5   2   0  879.01   27.00
  -5   2   0  867.01   26.80
   4  -2   0  164.88    9.90
   4  -2   0  154.28    9.80
   4  -2   0  144.49    8.60
  -4   2   0  148.39    6.20
  -4   2   0  155.18    9.00
  -4   2   0  149.88   10.00
  -4   2   0  155.18   10.00
   3  -2   0   38.80    4.80
   3  -2   0   49.40    6.00
   3  -2   0   40.20    4.90
  -3   2   0   37.50    4.80
  -3   2   0   42.20    5.00
  -3   2   0   35.20    5.00
  -3   2   0   44.90    5.40
   2  -2   0  790.62   17.90
   2  -2   0  774.72   18.00
   2  -2   0  776.12   26.60
  -2   2   0  779.72   18.10
  -2   2   0  819.82   20.40
  -2   2   0  813.42   19.90
  -2   2   0  764.42   18.30
   1  -2   0  392.46    8.80
   1  -2   0  396.06   11.30
   1  -2   0  373.36    8.60
  -1   2   0  377.26    9.10
  -1   2   0  387.36    9.20
  -1   2   0  374.06   10.80
   0  -2   0 1112.39   23.80
   0  -2   0 1092.49   22.00
   0   2   0 1107.39   22.00
   0   2   0 1134.19   23.00
   0   2   0 1094.29   23.50
  -1  -2   0  630.64   12.40
  -1  -2   0  642.14   15.80
  -1  -2   0  658.73   15.10
  -1  -2   0  643.04   13.80
   1   2   0  641.14   15.10
   1   2   0  626.74   13.00
   1   2   0  640.74   13.10
   1   2   0  647.64   13.80
   1   2   0  651.03   15.80
  -2  -2   0  182.08    6.90
  -2  -2   0  184.98    6.60
  -2  -2   0  183.28    7.20
  -2  -2   0  185.98    7.70
  -2  -2   0  179.68    8.60
   2   2   0  188.18    8.00
   2   2   0  181.58    7.50
   2   2   0  177.18    7.00
   2   2   0  193.38   10.30
   2   2   0  173.08    6.80
  -3  -2   0  141.69    8.60
  -3  -2   0  136.29    7.00
  -3  -2   0  140.69    7.50
  -3  -2   0  131.99    7.30
  -3  -2   0  129.49    6.90
   3   2   0  132.89    7.60
   3   2   0  133.59    7.20
   3   2   0  137.59    7.60
   3   2   0  143.29    8.50
   3   2   0  131.49    7.80
  -4  -2   0  322.37   12.50
  -4  -2   0  337.37   12.90
  -4  -2   0  337.57   14.30
  -4  -2   0  313.87   13.60
  -4  -2   0  304.27   11.80
   4   2   0  308.57   13.00
   4   2   0  308.07   13.10
   4   2   0  313.77   13.90
   4   2   0  322.77   13.30
   4   2   0  349.17   12.40
  -5  -2   0 1356.16   35.90
  -5  -2   0 1335.67   33.70
  -5  -2   0 1308.07   34.50
  -5  -2   0 1289.57   32.90
  -5  -2   0 1367.86   32.30
   5   2   0 1376.26   34.90
   5   2   0 1336.27   34.00
   5   2   0 1354.36   32.10
  -6  -2   0  211.48   13.00
  -6  -2   0  238.28   14.20
  -6  -2   0  208.58   11.70
  -6  -2   0  215.48   12.40
  -6  -2   0  222.08   11.50
   6   2   0  197.08   12.40
   6   2   0  218.08   13.10
   6   2   0  198.48   11.30
  -7  -2   0  167.78   11.10
  -7  -2   0  195.18   12.80
  -7  -2   0  150.78   16.20
   7   2   0  156.28   12.40
   7   2   0  155.08   10.20
  -8  -2   0   -3.30    3.40
  -8  -2   0    0.80    6.60
  -8  -2   0    4.50    4.20
   8   2   0    3.00    5.90
  -9  -2   0  102.99   11.40
  -9  -2   0   98.39   13.40
  -9  -2   0   67.39    8.40
   9   2   0   94.39   11.80
 -10  -2   0   25.90    8.20
 -10  -2   0   40.70    9.90
 -10  -2   0   40.20    6.80
  10   2   0   38.60    8.70
  10  -3   0  189.48   15.90
 -10   3   0  197.68   17.90
 -10   3   0  209.18   16.90
 -10   3   0  191.38    9.50
   9  -3   0  211.08   16.20
  -9   3   0  225.18   17.60
  -9   3   0  212.58   11.80
  -9   3   0  230.48   17.80
   8  -3   0  318.87   17.50
  -8   3   0  283.07   11.30
  -8   3   0  275.07   17.20
  -8   3   0  289.07   19.20
   7  -3   0   26.10    6.10
  -7   3   0   33.50    8.10
  -7   3   0   28.90    7.10
  -7   3   0   27.10    3.80
   6  -3   0   71.99    7.80
   6  -3   0   85.09    9.30
  -6   3   0   78.89    9.50
  -6   3   0   81.39   10.10
  -6   3   0   81.09    5.50
   5  -3   0  413.46   16.10
   5  -3   0  430.96   18.00
   5  -3   0  428.06   16.40
  -5   3   0  424.06   17.10
  -5   3   0  469.75   18.90
  -5   3   0  441.36   12.30
  -5   3   0  430.26   16.60
  -5   3   0  418.26   18.20
   4  -3   0 1158.18   30.50
   4  -3   0 1105.59   27.50
   4  -3   0 1115.99   28.40
  -4   3   0 1148.99   30.70
  -4   3   0 1128.19   30.60
  -4   3   0 1153.68   32.60
  -4   3   0 1079.79   28.20
   3  -3   0 3099.49   59.79
   3  -3   0 3147.19   59.69
   3  -3   0 3129.39   62.89
  -3   3   0 3237.68   63.29
  -3   3   0 3134.99   62.69
  -3   3   0 3064.49   60.19
  -3   3   0 3034.80   60.19
   2  -3   0 1469.45   32.20
   2  -3   0 1460.05   29.00
   2  -3   0 1444.26   28.80
  -2   3   0 1435.26   32.10
  -2   3   0 1462.15   29.70
  -2   3   0 1410.66   29.50
   1  -3   0   -1.20    2.40
   1  -3   0    2.50    1.50
  -1   3   0    6.20    3.80
  -1   3   0   -0.70    1.60
  -1   3   0    0.40    1.70
  -1   3   0   -0.50    2.30
  -1   3   0   -0.20    2.10
   0  -3   0 1430.16   31.60
   0  -3   0 1403.96   28.90
   0   3   0 1431.06   28.90
   0   3   0 1408.26   30.80
   0   3   0 1399.86   30.00
  -1  -3   0 1160.08   24.90
  -1  -3   0 1241.58   26.70
  -1  -3   0 1210.18   27.60
   1   3   0 1191.78   24.10
   1   3   0 1243.48   29.30
   1   3   0 1252.57   23.10
   1   3   0 1219.48   23.30
   1   3   0 1300.27   36.90
  -2  -3   0 2080.79   43.00
  -2  -3   0 2060.89   39.70
  -2  -3   0 1935.11   37.80
  -2  -3   0 2059.29   37.80
  -2  -3   0 2041.70   41.30
   2   3   0 2023.40   42.80
   2   3   0 2051.89   39.20
   2   3   0 2004.00   39.50
   2   3   0 2072.59   41.50
   2   3   0 2027.00   39.20
  -3  -3   0  642.44   17.10
  -3  -3   0  674.63   19.00
  -3  -3   0  695.53   18.50
  -3  -3   0  699.23   19.40
  -3  -3   0  679.63   20.60
   3   3   0  692.73   18.30
   3   3   0  660.33   18.10
   3   3   0  665.93   18.30
   3   3   0  656.73   20.20
   3   3   0  693.93   19.20
  -4  -3   0  175.48    9.20
  -4  -3   0  169.78   10.90
  -4  -3   0  155.98    9.70
  -4  -3   0  175.18    9.40
  -4  -3   0  180.88   10.20
   4   3   0  172.68    9.50
   4   3   0  176.98    9.70
   4   3   0  169.88    9.40
   4   3   0  173.58    9.30
   4   3   0  173.78   10.40
  -5  -3   0   96.59    9.20
  -5  -3   0  104.99    8.30
  -5  -3   0  100.49    7.80
  -5  -3   0  107.69    8.10
  -5  -3   0   91.99    8.40
   5   3   0  102.49    9.10
   5   3   0   86.99    8.10
   5   3   0  100.09    8.30
   5   3   0   91.39    8.00
   5   3   0   87.99    8.40
  -6  -3   0  318.17   14.70
  -6  -3   0  309.77   14.40
  -6  -3   0  291.67   13.80
  -6  -3   0  308.47   16.80
  -6  -3   0  316.37   15.70
   6   3   0  301.27   15.30
   6   3   0  321.27   16.20
   6   3   0  320.47   14.40
  -7  -3   0  209.58   15.20
  -7  -3   0  201.78   12.90
  -7  -3   0  206.78   12.10
   7   3   0  224.98   15.10
   7   3   0  231.58   17.20
  -8  -3   0  571.14   26.50
  -8  -3   0  598.64   22.40
  -8  -3   0  611.94   24.40
   8   3   0  601.14   25.30
  -9  -3   0  147.19   11.40
  -9  -3   0  140.39   14.90
  -9  -3   0  144.39   13.40
   9   3   0  152.48   15.00
 -10  -3   0   46.60    7.30
 -10  -3   0   54.49   11.00
  10   3   0   18.50    8.10
  10  -4   0    7.30    5.80
 -10   4   0   17.20    7.30
   9  -4   0   -0.70    5.80
  -9   4   0   -3.70    2.30
  -9   4   0   -4.50    6.20
  -9   4   0   -0.10    5.70
   8  -4   0  375.96   18.90
  -8   4   0  344.67   20.30
  -8   4   0  362.96   12.30
  -8   4   0  340.87   21.00
   7  -4   0    6.30    4.50
  -7   4   0   -5.50    3.90
  -7   4   0    0.50    2.20
  -7   4   0    3.40    4.80
   6  -4   0 1073.19   30.70
   6  -4   0 1123.09   31.60
  -6   4   0 1106.29   34.80
  -6   4   0 1085.69   24.70
  -6   4   0 1096.09   32.80
   5  -4   0   19.30    4.70
   5  -4   0   13.30    4.40
   5  -4   0    8.60    3.80
  -5   4   0   14.30    4.50
  -5   4   0   10.50    3.80
  -5   4   0   15.70    4.90
  -5   4   0   12.50    4.90
   4  -4   0    8.40    3.10
   4  -4   0   11.30    3.70
   4  -4   0    6.10    3.70
  -4   4   0   10.20    3.70
  -4   4   0    5.10    4.20
  -4   4   0    9.50    4.10
  -4   4   0    7.40    3.20
   3  -4   0    8.20    3.60
   3  -4   0    4.90    2.80
   3  -4   0    8.90    3.60
  -3   4   0    1.10    3.10
  -3   4   0    1.70    4.00
  -3   4   0    5.00    2.90
  -3   4   0   -0.40    3.80
   2  -4   0 1497.65   34.30
   2  -4   0 1448.26   28.50
   2  -4   0 1471.35   28.70
  -2   4   0 1500.55   34.30
  -2   4   0 1471.85   30.60
   1  -4   0   49.40    5.40
  -1   4   0   40.20    5.90
  -1   4   0   46.90    5.40
  -1   4   0   44.60    3.30
  -1   4   0   41.20    3.20
   0  -4   0 4374.86   85.49
   0  -4   0 4479.65   81.99
   0   4   0 4462.05   81.69
   0   4   0 4446.46   83.59
   0   4   0 4457.05   75.69
   0   4   0 4559.04   75.69
   0   4   0 4465.15   84.89
  -1  -4   0   35.70    5.20
  -1  -4   0   35.40    4.60
  -1  -4   0   36.60    3.60
   1   4   0   39.70    3.20
   1   4   0   40.40    3.60
   1   4   0   34.10    2.40
   1   4   0   34.70    5.00
   1   4   0   36.60    4.50
  -2  -4   0    2.30    1.20
  -2  -4   0    2.40    1.50
  -2  -4   0   -1.10    2.90
  -2  -4   0    4.70    2.40
  -2  -4   0    7.30    3.70
   2   4   0    1.80    2.00
   2   4   0    6.20    3.50
   2   4   0    5.80    2.50
   2   4   0    0.10    2.10
   2   4   0   -0.10    2.90
  -3  -4   0   20.20    4.90
  -3  -4   0   29.00    3.60
  -3  -4   0   30.30    3.60
  -3  -4   0   28.90    4.20
  -3  -4   0   28.50    4.80
   3   4   0   26.50    3.90
   3   4   0   26.30    4.20
   3   4   0   20.10    3.50
   3   4   0   29.00    5.40
   3   4   0   33.10    5.10
  -4  -4   0 1392.06   33.40
  -4  -4   0 1344.27   31.10
  -4  -4   0 1429.46   36.80
  -4  -4   0 1382.46   34.10
  -4  -4   0 1360.56   30.90
   4   4   0 1431.56   34.60
   4   4   0 1407.76   35.70
   4   4   0 1387.46   33.10
   4   4   0 1458.65   34.00
   4   4   0 1483.35   34.30
  -5  -4   0   -3.20    3.10
  -5  -4   0   -0.80    2.80
  -5  -4   0    4.90    3.30
  -5  -4   0   -4.60    4.70
  -5  -4   0    1.10    2.30
   5   4   0   -2.70    3.00
   5   4   0    2.80    3.40
   5   4   0   -2.40    2.80
   5   4   0    2.20    3.40
   5   4   0    6.50    3.40
  -6  -4   0  711.23   22.60
  -6  -4   0  680.53   26.70
  -6  -4   0  717.13   23.60
  -6  -4   0  713.13   24.60
   6   4   0  701.03   24.80
   6   4   0  699.83   24.60
  -7  -4   0   16.40    7.20
  -7  -4   0    9.80    4.40
  -7  -4   0    0.80    4.70
   7   4   0    2.90    3.60
  -8  -4   0   65.79    8.40
  -8  -4   0   88.79   12.10
  -8  -4   0   82.59    9.60
   8   4   0   83.09   10.00
  -9  -4   0    2.10    4.80
  -9  -4   0   -5.10    4.70
  -9  -4   0   -1.10    4.10
   9   4   0   -5.60    5.00
 -10  -4   0  129.19   11.60
 -10  -4   0  138.79   13.90
  10   4   0  140.49   14.30
   9  -5   0  157.98   13.60
  -9   5   0  136.09   15.80
  -9   5   0  155.68    7.30
   8  -5   0   12.30    5.10
  -8   5   0    6.70    2.60
  -8   5   0   21.00    7.10
  -8   5   0    3.50    6.00
   7  -5   0    6.50    5.10
  -7   5   0    4.80    5.30
  -7   5   0    2.70    2.30
  -7   5   0    1.80    4.90
   6  -5   0   12.40    5.10
   6  -5   0    8.00    3.90
  -6   5   0   15.70    5.10
  -6   5   0   14.90    5.60
   5  -5   0  888.21   24.40
   5  -5   0  904.71   24.80
  -5   5   0  898.11   29.50
  -5   5   0  843.12   25.90
  -5   5   0  890.11   26.70
   4  -5   0   23.60    4.90
   4  -5   0   24.90    4.20
   4  -5   0   21.80    4.10
  -4   5   0   31.80    5.20
  -4   5   0   22.70    4.30
  -4   5   0   19.70    5.10
   3  -5   0 1018.10   28.50
   3  -5   0 1021.30   22.90
   3  -5   0 1016.30   22.80
  -3   5   0 1006.50   24.90
  -3   5   0 1040.20   25.30
  -3   5   0 1077.59   29.50
   2  -5   0   18.90    1.90
   2  -5   0   23.80    2.70
   2  -5   0   24.70    4.60
  -2   5   0   17.60    3.20
  -2   5   0   24.50    3.50
  -2   5   0   19.00    3.20
  -2   5   0   37.20    7.00
   1  -5   0  116.69    8.90
  -1   5   0  129.79    8.40
  -1   5   0  125.39    5.00
  -1   5   0  117.89    5.10
  -1   5   0  111.69    6.70
  -1   5   0  133.19    9.90
   0  -5   0   49.30    5.80
   0  -5   0   54.29    7.30
   0   5   0   55.49    2.60
   0   5   0   49.20    5.00
   0   5   0   55.69    7.40
   0   5   0   54.19    3.00
   0   5   0   52.39    5.90
   0   5   0   55.09    6.20
  -1  -5   0 1186.68   29.20
  -1  -5   0 1255.07   32.10
   1   5   0 1205.28   23.80
   1   5   0 1246.08   29.60
   1   5   0 1200.98   26.10
   1   5   0 1214.78   31.10
   1   5   0 1202.28   23.20
  -2  -5   0  203.58    9.40
  -2  -5   0  206.18   10.60
  -2  -5   0  236.88   12.40
   2   5   0  212.48    8.30
   2   5   0  220.48   10.90
   2   5   0  213.48    7.60
   2   5   0  233.88   12.00
   2   5   0  204.68    7.50
  -3  -5   0 1184.08   27.60
  -3  -5   0 1132.49   29.80
  -3  -5   0 1139.09   31.50
  -3  -5   0 1123.19   23.50
  -3  -5   0 1099.49   22.40
   3   5   0 1124.49   26.60
   3   5   0 1093.39   31.00
   3   5   0 1147.99   26.40
   3   5   0 1151.88   29.80
   3   5   0 1101.69   26.10
  -4  -5   0    5.70    4.10
  -4  -5   0   -0.80    3.10
  -4  -5   0    0.20    2.30
  -4  -5   0    0.60    2.60
   4   5   0    5.00    3.10
   4   5   0    0.80    2.80
   4   5   0    4.30    3.00
   4   5   0    0.10    3.10
  -5  -5   0  123.39   10.80
  -5  -5   0  113.89    9.90
  -5  -5   0  122.99    8.90
  -5  -5   0  119.89    7.80
   5   5   0  121.49    9.10
   5   5   0  113.19    9.00
   5   5   0  109.79    9.20
   5   5   0  113.49   11.00
  -6  -5   0    6.80    4.10
  -6  -5   0   19.60    4.80
  -6  -5   0   17.10    4.40
  -6  -5   0   14.40    4.30
   6   5   0   22.50    4.70
   6   5   0   16.60    4.90
  -7  -5   0  432.46   17.60
  -7  -5   0  401.66   17.40
  -7  -5   0  436.36   20.20
  -7  -5   0  441.46   22.10
   7   5   0  411.56   19.20
   7   5   0  418.56   23.90
  -8  -5   0   27.00    8.00
  -8  -5   0   45.10    7.60
   8   5   0   49.60    8.70
  -9  -5   0  106.89   11.00
  -9  -5   0   95.69   13.90
  -9  -5   0   74.39    9.80
   9   5   0   84.49   12.00
   9  -6   0  122.09   13.00
  -9   6   0  132.19   15.00
  -9   6   0  144.19   14.30
   8  -6   0   82.79    9.80
  -8   6   0   86.89   12.20
  -8   6   0  114.69   11.90
  -8   6   0   97.19    5.90
   7  -6   0  570.24   21.80
  -7   6   0  544.45   15.50
  -7   6   0  541.85   25.90
  -7   6   0  571.44   23.90
   6  -6   0   50.29    6.60
   6  -6   0   70.29    9.20
  -6   6   0   58.19    9.30
  -6   6   0   71.69    8.50
   5  -6   0   75.59    7.20
   5  -6   0   73.49    6.80
  -5   6   0   63.79    8.10
  -5   6   0   72.69    9.20
   4  -6   0   37.50    4.50
   4  -6   0   46.40    4.80
   4  -6   0   44.60    6.60
  -4   6   0   42.20    6.20
  -4   6   0   52.79    6.80
  -4   6   0   47.00    5.70
  -4   6   0   43.00    4.80
  -4   6   0   52.99    7.40
   3  -6   0 1490.05   30.00
   3  -6   0 1543.55   39.00
   3  -6   0 1535.35   29.40
  -3   6   0 1488.15   38.60
  -3   6   0 1528.65   33.20
  -3   6   0 1461.55   41.30
  -3   6   0 1506.35   34.00
  -3   6   0 1475.45   33.70
   2  -6   0  601.14   20.50
  -2   6   0  569.24   22.40
  -2   6   0  638.04   20.80
  -2   6   0  596.44   15.90
  -2   6   0  598.54   17.50
  -2   6   0  586.14   15.80
  -1   6   0 1489.25   29.20
  -1   6   0 1465.05   36.20
  -1   6   0 1459.65   38.80
  -1   6   0 1457.75   29.40
  -1   6   0 1545.05   34.10
   0  -6   0  235.58   14.20
   0   6   0  260.97   11.30
   0   6   0  259.27    6.80
   0   6   0  255.27    6.70
   0   6   0  221.98   10.20
   0   6   0  259.77   13.80
  -1  -6   0  194.98   10.80
  -1  -6   0  199.28   12.50
   1   6   0  196.48    8.40
   1   6   0  202.08    6.20
   1   6   0  201.58    6.80
   1   6   0  174.08    9.90
   1   6   0  208.18   12.30
  -2  -6   0  146.29   10.80
  -2  -6   0  131.79    7.30
  -2  -6   0  151.08    9.70
   2   6   0  141.89    6.40
   2   6   0  120.39   16.70
   2   6   0  127.39    6.90
  -3  -6   0 1868.31   44.00
  -3  -6   0 1790.92   45.80
  -3  -6   0 1827.42   40.70
   3   6   0 1900.41   39.40
   3   6   0 1893.41   39.30
   3   6   0 1831.12   43.80
   3   6   0 1869.11   39.30
   3   6   0 1834.72   45.80
  -4  -6   0  423.96   17.80
  -4  -6   0  430.16   19.30
  -4  -6   0  400.46   10.80
  -4  -6   0  425.66   15.70
  -4  -6   0  427.76   12.10
   4   6   0  411.06   15.20
   4   6   0  414.36   14.90
  -5  -6   0  967.20   32.70
  -5  -6   0  961.50   28.10
  -5  -6   0 1011.60   24.60
  -5  -6   0  970.60   23.40
  -5  -6   0  986.70   30.40
   5   6   0  979.10   28.00
   5   6   0  946.71   27.20
   5   6   0  958.60   28.10
  -6  -6   0   22.70    7.00
  -6  -6   0   31.70    5.10
  -6  -6   0   26.90    5.80
  -6  -6   0   41.10    5.50
  -6  -6   0   30.10    6.10
   6   6   0   18.30    5.20
   6   6   0   26.80    6.50
  -7  -6   0    7.70    4.10
  -7  -6   0   -7.90    6.00
  -7  -6   0   -1.90    4.60
  -7  -6   0    1.60    4.70
   7   6   0    9.60    5.30
   7   6   0   -2.50    4.30
  -8  -6   0   47.50    8.70
  -8  -6   0   40.50    7.20
  -8  -6   0   48.90    9.50
   8   6   0   55.19    9.40
  -9  -6   0  340.17   22.20
  -9  -6   0  327.37   17.40
  -9  -6   0  367.56   20.20
   9  -7   0   19.90    6.90
  -9   7   0   20.20    7.20
   8  -7   0   27.70    6.50
  -8   7   0   20.90    6.70
  -8   7   0   28.70    3.60
   7  -7   0    7.70    4.40
   7  -7   0   12.60    5.50
  -7   7   0    3.00    5.20
  -7   7   0    8.60    5.90
  -7   7   0    5.90    2.60
   6  -7   0  179.68   10.40
   6  -7   0  180.28   10.80
  -6   7   0  161.18   14.20
  -6   7   0  167.98   12.90
  -6   7   0  167.88    8.60
   5  -7   0  269.37   11.20
  -5   7   0  271.47   14.60
  -5   7   0  261.97   10.80
   4  -7   0  285.77    9.30
   4  -7   0  287.97    9.80
  -4   7   0  296.17   15.00
  -4   7   0  251.27   12.50
  -4   7   0  305.67   13.70
  -4   7   0  285.97   11.50
  -4   7   0  287.17   16.10
   3  -7   0   69.49    8.10
  -3   7   0   56.19    6.00
  -3   7   0   69.39    5.80
  -3   7   0   74.69    6.40
  -3   7   0   49.99    7.80
  -3   7   0   84.29    9.00
   2  -7   0   39.40    6.00
  -2   7   0   47.80    6.50
  -2   7   0   49.99    8.10
  -2   7   0   50.79    4.50
  -2   7   0   48.50    4.50
  -2   7   0   56.29    6.20
  -1   7   0   93.59    8.50
  -1   7   0   98.19    9.50
  -1   7   0   96.49    7.30
  -1   7   0   90.99    5.00
  -1   7   0  100.09    4.90
   0  -7   0  942.51   31.20
   0   7   0  982.20   20.00
   0   7   0  979.80   19.70
   0   7   0  963.70   29.80
   0   7   0  950.70   26.90
   0   7   0  890.81   25.10
   0   7   0 1005.70   28.90
  -1  -7   0  604.24   23.30
  -1  -7   0  580.64   20.20
   1   7   0  584.24   13.60
   1   7   0  611.74   21.80
   1   7   0  560.64   14.10
   1   7   0  576.54   21.80
   1   7   0  580.64   16.60
   1   7   0  572.94   19.80
  -2  -7   0  564.84   22.60
  -2  -7   0  565.24   20.30
   2   7   0  577.44   16.00
   2   7   0  555.74   21.60
   2   7   0  558.24   20.20
   2   7   0  562.24   14.70
   2   7   0  558.44   14.90
  -3  -7   0  181.28    9.70
  -3  -7   0  180.88   12.80
  -3  -7   0  173.68   11.40
   3   7   0  172.48    8.70
   3   7   0  167.58    8.40
   3   7   0  175.88    8.40
  -4  -7   0    6.70    3.60
  -4  -7   0   11.00    4.70
  -4  -7   0   10.60    4.90
   4   7   0    6.50    3.30
   4   7   0   10.40    3.40
  -5  -7   0  239.48   14.50
  -5  -7   0  244.78   13.00
  -5  -7   0  257.27    8.60
  -5  -7   0  246.38    7.70
  -5  -7   0  233.28   15.70
   5   7   0  248.88   13.00
   5   7   0  259.57   12.60
   5   7   0  247.98   12.80
  -6  -7   0  284.37   16.60
  -6  -7   0  282.77   15.30
  -6  -7   0  277.97   10.90
  -6  -7   0  288.17   11.80
  -6  -7   0  305.57   19.00
   6   7   0  293.87   14.90
   6   7   0  283.07   14.90
  -7  -7   0  124.29   14.70
  -7  -7   0  108.19    8.90
  -7  -7   0  129.69   12.10
  -7  -7   0  114.79    8.40
   7   7   0  112.29   11.40
   7   7   0  121.49   10.90
  -8  -7   0  121.09   11.10
  -8  -7   0  142.39   10.40
  -8  -7   0  143.79   15.30
  -8  -7   0  137.99   13.00
   8   7   0  140.29   13.50
  -9  -7   0   11.60    5.50
  -9  -7   0   12.30    7.40
   9   7   0    0.00    7.00
  -8   8   0  137.69   15.00
  -8   8   0  130.59   13.10
   7  -8   0   78.29    8.40
  -7   8   0   96.29   10.70
  -7   8   0   86.29    6.30
  -7   8   0   76.29   11.70
   6  -8   0  110.09    8.00
   6  -8   0  104.09    7.90
  -6   8   0  111.09    7.50
  -6   8   0  122.09   13.60
   5  -8   0   -2.00    2.60
   5  -8   0   -0.70    2.30
  -5   8   0    8.30    4.60
  -5   8   0    2.10    4.70
  -5   8   0   -4.10    2.20
  -4   8   0    5.10    3.10
  -4   8   0    8.30    5.30
  -4   8   0   14.80    4.30
  -4   8   0   11.10    3.80
  -3   8   0  464.55   16.20
  -3   8   0  474.45   15.90
  -3   8   0  455.55   20.70
  -3   8   0  453.85   16.50
  -2   8   0  716.63   25.10
  -2   8   0  696.73   18.60
  -2   8   0  676.53   18.40
  -1   8   0  164.88    7.00
  -1   8   0  156.48   11.20
  -1   8   0  145.29    9.50
  -1   8   0  154.28    6.70
   0  -8   0  611.44   25.80
   0   8   0  620.74   22.60
   0   8   0  598.74   20.60
   0   8   0  601.04   14.30
   0   8   0  591.24   14.80
   0   8   0  585.44   19.60
  -1  -8   0    5.20    4.90
  -1  -8   0    1.60    3.40
   1   8   0    6.60    2.60
   1   8   0    4.80    1.90
   1   8   0    5.00    3.90
   1   8   0    4.00    2.40
  -2  -8   0   36.30    7.50
  -2  -8   0   26.10    6.00
   2   8   0   31.60    3.90
   2   8   0   38.10    4.80
   2   8   0   35.10    4.40
  -3  -8   0  569.14   22.40
  -3  -8   0  571.84   24.90
   3   8   0  584.14   17.40
   3   8   0  605.44   17.60
   3   8   0  593.74   17.60
  -4  -8   0  402.26   21.00
  -4  -8   0  416.56   19.60
  -4  -8   0  413.86   16.40
   4   8   0  428.16   15.30
   4   8   0  428.46   15.90
   4   8   0  422.46   18.40
  -5  -8   0  123.39   10.10
  -5  -8   0  106.89   10.70
  -5  -8   0  112.19   12.50
   5   8   0  121.09    9.00
   5   8   0  119.39    9.90
  -6  -8   0  105.69   11.50
  -6  -8   0   81.79    9.60
  -6  -8   0   76.79   11.80
   6   8   0   99.89    9.70
   6   8   0   91.69    9.10
  -7  -8   0   17.50    4.00
  -7  -8   0   22.00    7.90
  -7  -8   0    4.40    5.40
   7   8   0   14.30    6.00
   7   8   0   10.30    4.80
  -8  -8   0   62.79   11.10
  -8  -8   0   41.10    6.60
  -8  -8   0   53.49    9.10
   8   8   0   49.60    9.10
   8  -9   0  -10.50    4.80
   7  -9   0  134.09    9.00
  -7   9   0  131.39   12.50
   6  -9   0   79.19    5.70
   6  -9   0   67.39    5.20
  -6   9   0   78.79    9.50
  -6   9   0   80.59    6.50
  -6   9   0   70.59   10.70
  -5   9   0  765.32   25.70
  -5   9   0  718.03   30.30
  -4   9   0   58.69    7.10
  -4   9   0   41.40    9.00
  -4   9   0   56.09    7.00
  -4   9   0   64.09    6.80
  -3   9   0  183.38   11.10
  -3   9   0  163.68    9.70
  -3   9   0  151.88    9.30
  -3   9   0  164.88   11.60
  -3   9   0  184.38   14.00
  -2   9   0   42.70    5.20
  -2   9   0   41.70    5.80
  -2   9   0   39.30    4.70
  -2   9   0   43.40    7.50
  -1   9   0  584.34   15.90
  -1   9   0  611.54   25.10
  -1   9   0  613.04   15.90
  -1   9   0  607.24   23.60
   0  -9   0  114.79   13.20
   0   9   0  108.09    8.50
   0   9   0  107.19    6.40
   0   9   0  106.89   10.20
  -1  -9   0 1122.59   38.30
   1   9   0 1097.19   25.70
   1   9   0 1115.89   27.20
   1   9   0 1110.29   24.30
   1   9   0 1073.49   34.00
   2   9   0   35.80    4.20
   2   9   0   34.70    7.00
   2   9   0   32.80    4.40
   2   9   0   46.10    4.60
  -3  -9   0   17.70    7.00
  -3  -9   0   17.60    6.10
   3   9   0   21.20    4.00
   3   9   0   24.00    3.90
   3   9   0   14.20    3.70
  -4  -9   0   -4.20    4.00
  -4  -9   0   -8.90    5.40
   4   9   0    0.10    2.70
   4   9   0    4.70    3.20
   4   9   0   -5.00    3.20
  -5  -9   0  414.16   21.00
  -5  -9   0  413.36   17.70
  -5  -9   0  396.96   22.90
   5   9   0  428.56   16.60
   5   9   0  459.35   18.20
  -6  -9   0   32.00    7.40
  -6  -9   0   17.80    6.70
  -6  -9   0    8.20    5.60
   6   9   0   21.50    5.10
   6   9   0   32.70    7.00
  -7  -9   0  344.27   22.90
  -7  -9   0  346.17   20.40
   7   9   0  335.17   16.70
   7   9   0  328.77   18.30
  -7  10   0   51.99   10.30
  -7  10   0   65.09    9.70
  -6  10   0   31.70    8.20
  -6  10   0   36.20    7.70
  -5  10   0   26.50    7.80
  -5  10   0   27.10    6.10
  -5  10   0   37.80    5.50
  -4  10   0    7.40    4.10
  -4  10   0    4.90    5.20
  -3  10   0  346.47   19.20
  -3  10   0  354.66   14.70
  -3  10   0  336.27   14.00
  -2  10   0   72.19    9.80
  -2  10   0   63.09    5.50
  -2  10   0   65.89    6.30
  -1  10   0   81.09    9.00
  -1  10   0   79.79   11.60
  -1  10   0   85.89    5.70
  -1  10   0   76.09    5.60
   0 -10   0   10.00    6.60
   0  10   0   17.60    3.00
   0  10   0   19.40    6.50
   0  10   0   10.70    4.00
   0  10   0   16.90    3.20
  -1 -10   0   44.10   10.30
   1  10   0   44.20    4.70
   1  10   0   38.60    5.10
   1  10   0   21.70    7.20
  -2 -10   0   22.40    8.10
   2  10   0   12.90    3.30
   2  10   0   19.30    3.60
   2  10   0   16.40    3.50
  -3 -10   0  413.86   20.60
  -3 -10   0  419.86   24.50
   3  10   0  411.06   14.70
   3  10   0  393.66   14.30
   3  10   0  423.16   14.30
  -4 -10   0   49.60   10.20
  -4 -10   0   34.50    7.50
   4  10   0   47.70    5.70
   4  10   0   53.29    6.90
   4  10   0   53.29    5.70
  -5 -10   0   28.30    8.60
  -5 -10   0   28.70    7.60
   5  10   0   25.20    4.70
   5  10   0   22.10    5.70
  -6 -10   0   11.90    7.20
  -6 -10   0   -6.00    5.90
   6  10   0   19.40    4.30
   7  10   0   26.80    7.10
  -6  11   0  161.88   16.40
  -6  11   0  180.68   13.70
  -5  11   0   -1.90    6.10
  -4  11   0   77.89   11.10
  -4  11   0   69.49    8.00
  -3  11   0   12.20    7.00
  -3  11   0   20.60    4.00
  -3  11   0   22.80    4.70
  -2  11   0   25.10    4.80
  -2  11   0   10.50    6.10
  -2  11   0   18.40    5.30
  -2  11   0   22.20    4.00
  -1  11   0   -2.30    2.10
  -1  11   0    5.90    2.60
  -1  11   0   -2.00    4.50
  -1  11   0    4.90    4.50
   0  11   0  511.05   23.70
   0  11   0  519.15   15.50
   0  11   0  511.75   15.50
   0  11   0  575.34   25.30
  -1 -11   0   10.50    7.30
   1  11   0    0.60    2.70
   1  11   0   -1.30    2.70
   1  11   0   -5.70    5.10
   1  11   0    5.00    2.20
  -2 -11   0   91.49   13.80
   2  11   0   92.09    6.90
   2  11   0  101.49    7.00
   2  11   0  111.59   11.80
   2  11   0   89.89    6.90
  -3 -11   0   -3.40    4.50
   3  11   0   -5.10    2.30
   3  11   0    3.90    3.80
   3  11   0   -2.90    6.10
   3  11   0   10.60    4.00
  -4 -11   0   57.69   11.10
  -4 -11   0   29.60    7.70
   4  11   0   56.19    6.00
   4  11   0   65.49    6.90
  -5 -11   0   -3.80    4.30
  -5 -11   0   -5.60    6.00
   5  11   0   -6.50    4.40
   6  11   0  216.78   14.10
  -5  12   0   25.00    6.50
  -5  12   0   15.80    8.60
  -4  12   0  160.08   11.20
  -3  12   0  211.58   11.80
  -3  12   0  218.08   17.40
  -2  12   0  186.18   14.10
  -2  12   0  184.88   15.20
  -2  12   0  190.68   10.00
  -2  12   0  186.68    9.90
  -1  12   0   15.50    6.20
  -1  12   0    1.90    4.30
  -1  12   0    7.70    3.20
  -1  12   0   11.80    3.60
   0  12   0   21.40    6.80
   0  12   0   18.50    3.50
   0  12   0   24.00    3.90
   0  12   0   23.90    4.60
  -1 -12   0  104.49   14.40
   1  12   0  107.09    7.50
   1  12   0  132.29    8.10
   1  12   0  123.59   13.30
   1  12   0  104.69    7.60
  -2 -12   0  215.58   19.40
   2  12   0  182.58   16.60
   2  12   0  191.98    9.20
   2  12   0  231.28   15.20
   2  12   0  199.68    9.90
  -3 -12   0  181.68   18.10
   3  12   0  185.38   16.50
   3  12   0  203.88   10.80
   3  12   0  184.98    8.40
  -4 -12   0  106.59   15.00
   4  12   0   83.09    7.90
   4  12   0   71.89   12.20
  -3  13   0   -4.70    5.90
  -3  13   0    3.70    6.20
  -3  13   0   -0.30    4.50
  -2  13   0   12.90    4.60
  -2  13   0    3.40    6.20
  -1  13   0  189.78   15.80
  -1  13   0  189.88   11.40
  -1  13   0  180.28   12.10
   0  13   0    8.40    3.60
   0  13   0    4.70    5.20
  -1 -13   0  121.29   15.90
   1  13   0  108.49   14.30
  -2 -13   0    0.90    6.10
   2  13   0    3.20    5.60
   2  13  -1   17.10    7.80
   1  13  -1    9.90    8.50
   0  13  -1    7.50    3.90
  -1  13  -1  160.18    9.70
  -1  13  -1  175.78   16.60
  -2  13  -1    9.70    6.00
  -2  13  -1   15.20    4.60
   4  12  -1    2.80    8.10
  -4 -12   1    3.00    9.00
   3  12  -1   31.90    8.40
  -3 -12   1   32.70    9.00
   2  12  -1  150.48    9.40
   2  12  -1  131.69   15.60
  -2 -12   1  128.19   17.20
   1  12  -1  149.39    6.00
   1  12  -1  162.18   16.40
  -1 -12   1  143.69   17.30
   0  12  -1  206.38   13.10
   0  12  -1  188.18    9.30
   0  12  -1  203.28   17.10
  -1  12  -1   26.00    7.50
  -1  12  -1   22.60    5.30
  -1  12  -1   27.40    4.80
  -1  12  -1   29.40    4.90
  -2  12  -1    9.40    7.00
  -2  12  -1    3.40    4.00
  -2  12  -1   -2.00    4.20
  -2  12  -1    3.80    5.00
  -3  12  -1   79.99   11.40
  -3  12  -1   71.29    7.80
  -4  12  -1  114.79   10.10
  -4  12  -1  161.18   15.90
   5  11  -1   -1.40    3.90
  -5 -11   1   -3.70    5.20
   4  11  -1  191.78   11.90
   3  11  -1    0.00    3.30
   3  11  -1   13.60    6.30
   3  11  -1    5.60    3.90
  -3 -11   1   15.40    8.10
   2  11  -1    2.70    3.50
   2  11  -1   -4.20    4.30
  -2 -11   1    6.40    6.10
   1  11  -1   19.30    3.00
   1  11  -1   29.20    4.80
   1  11  -1   16.40    7.50
   1  11  -1   24.60    4.50
  -1 -11   1   15.40    7.70
   0  11  -1  380.26   14.20
   0  11  -1  398.06   15.00
   0  11  -1  414.26   13.50
   0  11  -1  381.06   21.80
   0  11  -1  396.36   13.70
  -1  11  -1    7.80    3.70
  -1  11  -1   10.00    3.30
  -1  11  -1    0.50    4.70
  -1  11  -1   11.00    3.80
  -2  11  -1  257.37   12.00
  -2  11  -1  278.57   18.60
  -2  11  -1  265.47   12.40
  -3  11  -1    8.20    4.20
  -3  11  -1    4.60    4.60
  -4  11  -1   16.10    4.90
  -4  11  -1    6.40    6.90
  -5  11  -1   27.30    8.40
  -5  11  -1   25.40    6.70
  -6  11  -1  157.28   16.20
  -6  11  -1  147.09   12.60
   6  10  -1    4.70    4.60
  -6 -10   1   11.90    7.00
  -6 -10   1   15.20    6.40
   5  10  -1    3.10    4.40
  -5 -10   1    1.50    6.40
   4  10  -1   44.20    4.30
   4  10  -1   50.09    7.40
  -4 -10   1   40.00    9.20
   3  10  -1  247.28   12.20
   3  10  -1  228.68   11.30
   3  10  -1  223.78    7.70
  -3 -10   1  247.18   18.80
   2  10  -1   72.89    4.40
   2  10  -1   71.69    6.70
   2  10  -1   75.99    6.60
   2  10  -1   62.69   10.10
  -2 -10   1   80.39   12.50
   1  10  -1  177.48   15.10
   1  10  -1  174.88    9.60
   1  10  -1  173.78    7.70
   1  10  -1  168.48    9.00
  -1 -10   1  181.78   16.20
   0  10  -1   -0.40    2.70
   0  10  -1    1.00    2.70
   0  10  -1    6.70    5.10
   0  10  -1    1.20    3.70
   0 -10   1    6.00    5.90
  -1  10  -1    6.20    3.30
  -1  10  -1    3.30    3.30
  -1  10  -1    5.30    3.20
  -1  10  -1    2.10    2.80
  -1  10  -1    2.70    5.50
  -2  10  -1   62.49    7.30
  -2  10  -1   81.79    8.60
  -2  10  -1   92.39   11.00
  -2  10  -1   68.59    6.70
  -3  10  -1  233.78   13.50
  -3  10  -1  251.97   12.40
  -3  10  -1  233.68   17.30
  -3  10  -1  213.48   11.40
  -4  10  -1   62.49    8.10
  -4  10  -1   63.99   10.60
  -5  10  -1  206.28   16.10
  -5  10  -1  171.98   16.20
  -6  10  -1   -0.70    5.60
  -6  10  -1    4.70    5.40
  -7  10  -1   12.00    8.70
  -7  10  -1   18.20    6.20
   7   9  -1   44.20    8.30
  -7  -9   1   29.80    8.80
  -7  -9   1   27.90    8.50
   6   9  -1   16.30    6.70
  -6  -9   1   22.50    5.80
  -6  -9   1   34.40    8.10
  -6  -9   1   10.00    7.80
   5   9  -1  567.74   21.60
   5   9  -1  603.04   18.00
  -5  -9   1  576.64   19.50
  -5  -9   1  583.44   27.80
  -5  -9   1  588.94   25.60
   4   9  -1   57.89    5.20
   4   9  -1   69.59    7.00
   4   9  -1   55.39    6.90
  -4  -9   1   64.99   10.60
  -4  -9   1   58.69    9.00
   3   9  -1  366.86   14.40
   3   9  -1  360.06   11.10
   3   9  -1  399.26   15.40
  -3  -9   1  389.56   21.80
   2   9  -1    6.10    3.30
   2   9  -1    1.80    2.90
   2   9  -1    0.70    1.70
  -2  -9   1   -5.00    4.40
   1   9  -1  173.38   13.70
   1   9  -1  146.49    8.70
   1   9  -1  151.28    6.90
   1   9  -1  145.79    7.90
   0   9  -1   46.30    5.60
   0   9  -1   41.90    4.70
   0   9  -1   44.20    5.40
   0   9  -1   40.10    8.00
   0  -9   1   56.09   12.20
  -1   9  -1 1062.29   25.40
  -1   9  -1 1013.50   25.50
  -1   9  -1 1042.60   34.20
  -2   9  -1   93.09   10.60
  -2   9  -1   85.49    6.60
  -2   9  -1   86.29    7.40
  -2   9  -1   84.69    7.30
  -3   9  -1  194.68   11.80
  -3   9  -1  194.28   14.40
  -3   9  -1  202.08   10.60
  -3   9  -1  181.18   10.80
  -4   9  -1   13.20    4.40
  -4   9  -1   13.50    4.70
  -4   9  -1   13.00    5.10
  -5   9  -1  259.97   14.70
  -5   9  -1  246.68   12.90
  -5   9  -1  284.47   19.90
  -6   9  -1   18.70    7.50
  -6   9  -1   11.40    4.80
  -6   9  -1   15.70    4.00
   6  -9   1   10.50    3.10
  -7   9  -1  320.97   22.00
  -7   9  -1  336.07   18.90
   7  -9   1  307.17   13.40
   8   8  -1  116.69   13.40
  -8  -8   1  144.09   14.30
  -8  -8   1  134.59   10.90
  -8  -8   1  117.29   14.60
   7   8  -1   81.49   10.10
  -7  -8   1   78.19   10.70
  -7  -8   1   78.09    8.00
   6   8  -1   22.80    6.50
  -6  -8   1   23.00    7.40
  -6  -8   1   16.90    2.60
  -6  -8   1   23.40    3.20
  -6  -8   1    6.80    5.20
  -6  -8   1    9.00    5.00
   5   8  -1    3.40    3.70
   5   8  -1    0.90    3.10
  -5  -8   1   -7.10    4.20
  -5  -8   1    5.00    3.90
  -5  -8   1   10.00    6.10
   4   8  -1  390.46   13.10
   4   8  -1  359.86   15.00
   4   8  -1  397.16   15.90
  -4  -8   1  358.06   13.60
  -4  -8   1  362.66   20.60
  -4  -8   1  389.36   19.30
   3   8  -1  656.23   19.90
   3   8  -1  707.13   20.70
   3   8  -1  677.23   17.00
   2   8  -1  638.14   18.00
   2   8  -1  641.44   18.70
   2   8  -1  633.74   15.40
  -2  -8   1  633.54   26.40
   1   8  -1  234.08    8.50
   1   8  -1  241.88   15.10
   1   8  -1  242.98    9.50
   1   8  -1  240.58   10.40
  -1  -8   1  246.88   16.70
   0   8  -1   43.50    4.20
   0   8  -1   40.30    4.70
   0   8  -1   45.70    7.40
   0   8  -1   38.70    5.00
   0  -8   1   48.70    9.10
  -1   8  -1   53.59    5.40
  -1   8  -1   56.99    4.90
  -1   8  -1   56.19    6.30
  -1   8  -1   61.39    8.80
  -2   8  -1  594.94   20.60
  -2   8  -1  597.84   19.40
  -2   8  -1  633.94   18.20
  -2   8  -1  665.83   24.90
  -2   8  -1  630.74   18.30
  -3   8  -1  417.06   15.30
  -3   8  -1  428.96   15.90
  -3   8  -1  426.06   16.50
  -3   8  -1  407.76   20.00
  -4   8  -1  207.18   15.00
  -4   8  -1  192.98   14.90
  -4   8  -1  188.08   11.60
  -4   8  -1  203.48   11.60
  -4   8  -1  191.88   10.80
  -5   8  -1  156.38   11.50
  -5   8  -1  158.28   14.60
   5  -8   1  172.88    8.00
  -6   8  -1   -3.30    3.70
  -6   8  -1    9.10    5.80
   6  -8   1   -2.30    3.70
   6  -8   1    3.80    3.70
  -7   8  -1   15.10    6.30
  -7   8  -1    8.40    4.10
  -7   8  -1    8.40    6.50
   7  -8   1   18.50    6.30
   7  -8   1    9.50    4.50
  -8   8  -1  140.79   15.10
  -8   8  -1  130.19    8.80
  -8   8  -1  169.48   17.80
   8   7  -1   48.10    9.00
  -8  -7   1   42.30    7.80
  -8  -7   1   43.60   10.10
  -8  -7   1   49.80    7.30
   7   7  -1   32.40    7.10
  -7  -7   1   30.10    5.50
  -7  -7   1   21.80    6.90
  -7  -7   1   22.70    5.40
  -7  -7   1   30.80    8.20
   6   7  -1  492.65   18.80
   6   7  -1  536.75   21.50
  -6  -7   1  460.45   23.40
  -6  -7   1  507.75   22.70
  -6  -7   1  495.95   16.10
  -6  -7   1  495.85   19.90
   5   7  -1  285.07   14.50
   5   7  -1  290.17   15.00
  -5  -7   1  285.07   16.20
  -5  -7   1  303.57   11.00
  -5  -7   1  305.97   13.90
  -5  -7   1  329.07   19.60
   4   7  -1   55.79    5.70
   4   7  -1   52.39    6.50
   4   7  -1   58.49    8.10
  -4  -7   1   56.09    6.10
  -4  -7   1   57.29    9.00
  -4  -7   1   57.89    7.90
   3   7  -1  170.38    7.40
   3   7  -1  168.98    9.10
   3   7  -1  174.68    9.20
  -3  -7   1  170.58   11.80
  -3  -7   1  159.98   13.20
  -3  -7   1  181.08    8.20
   2   7  -1  286.47   11.00
   2   7  -1  264.07    8.60
   2   7  -1  286.67   10.50
  -2  -7   1  280.87   16.00
  -2  -7   1  286.97   14.50
   1   7  -1  344.27   16.90
   1   7  -1  321.47   16.50
   1   7  -1  313.87    9.60
   1   7  -1  335.77   10.80
   1   7  -1  339.57   11.80
   1   7  -1  320.47   15.00
  -1  -7   1  354.56   18.00
   0   7  -1 1654.33   40.20
   0   7  -1 1798.62   44.40
   0   7  -1 1675.73   36.60
   0   7  -1 1642.44   44.10
   0   7  -1 1649.44   36.30
   0   7  -1 1711.23   35.30
   0  -7   1 1804.12   47.60
  -1   7  -1  276.17   10.20
  -1   7  -1  271.57    9.60
  -1   7  -1  262.97   14.40
  -1   7  -1  260.17   15.40
  -2   7  -1  191.78    8.90
  -2   7  -1  215.98   13.00
  -2   7  -1  191.18   10.00
  -2   7  -1  194.48   10.50
  -2   7  -1  193.98    8.70
  -2   7  -1  173.38   13.50
   2  -7   1  209.08   12.90
  -3   7  -1   27.40    6.20
  -3   7  -1   34.60    5.30
  -3   7  -1   30.80    5.00
  -3   7  -1   30.70    4.70
  -4   7  -1  249.78   13.00
  -4   7  -1  260.67   11.80
  -4   7  -1  245.98   12.20
  -4   7  -1  225.28   15.40
  -4   7  -1  247.38   13.60
   4  -7   1  260.87    9.40
  -5   7  -1  314.37   15.80
  -5   7  -1  327.87   18.80
   5  -7   1  308.67   12.60
   5  -7   1  332.87   12.80
  -6   7  -1  444.36   23.20
  -6   7  -1  437.66   23.20
   6  -7   1  458.75   17.00
  -7   7  -1  109.19   13.10
  -7   7  -1  100.99   10.80
   7  -7   1  100.19    9.40
  -8   7  -1    2.80    6.20
  -8   7  -1   19.10    4.10
  -8   7  -1   15.80    6.80
   8  -7   1   19.10    6.20
  -9   7  -1   15.70    6.30
   9  -7   1   -1.00    5.20
   9   6  -1  368.16   21.60
  -9  -6   1  318.67   17.50
  -9  -6   1  310.87   21.70
  -9  -6   1  329.77   19.40
   8   6  -1   92.59   11.20
  -8  -6   1  103.09   12.70
  -8  -6   1   84.09   10.40
  -8  -6   1   91.79   11.00
   7   6  -1  322.27   18.10
  -7  -6   1  332.07   17.50
  -7  -6   1  327.07   15.00
  -7  -6   1  338.37   15.70
  -7  -6   1  301.07   19.90
   6   6  -1   36.60    6.20
   6   6  -1   42.10    7.20
  -6  -6   1   45.70    7.40
  -6  -6   1   45.20    6.20
  -6  -6   1   29.80    5.30
  -6  -6   1   41.60    8.40
   5   6  -1  125.99    9.50
   5   6  -1  116.99   10.00
  -5  -6   1  128.69    7.80
  -5  -6   1  116.89   10.40
  -5  -6   1  117.49    8.80
  -5  -6   1  150.28   12.40
  -5  -6   1  133.59    8.40
   4   6  -1   22.60    4.90
   4   6  -1   27.40    5.00
   4   6  -1   28.70    4.10
  -4  -6   1   28.80    3.60
  -4  -6   1   26.60    6.20
  -4  -6   1   23.50    4.20
  -4  -6   1   21.30    3.90
  -4  -6   1   19.50    5.60
   3   6  -1 1756.32   45.40
   3   6  -1 1753.02   38.70
   3   6  -1 1795.22   43.00
   3   6  -1 1746.53   36.00
   3   6  -1 1757.82   38.30
  -3  -6   1 1769.92   31.90
  -3  -6   1 1712.53   32.60
  -3  -6   1 1794.12   37.50
  -3  -6   1 1790.82   45.80
  -3  -6   1 1784.42   42.90
   2   6  -1  304.97   15.40
   2   6  -1  300.87   11.30
   2   6  -1  286.67   10.60
   2   6  -1  297.87    8.90
   2   6  -1  308.47   13.90
  -2  -6   1  324.97   16.00
  -2  -6   1  290.37   13.90
   1   6  -1  609.44   19.80
   1   6  -1  573.64   17.90
   1   6  -1  603.74   14.00
   1   6  -1  621.94   26.00
   1   6  -1  587.84   15.10
  -1  -6   1  622.94   22.60
   0   6  -1   48.50    4.60
   0   6  -1   47.20    6.30
   0   6  -1   58.89    7.40
   0   6  -1   48.00    4.20
   0   6  -1   55.99    6.20
   0   6  -1   49.90    4.10
   0  -6   1   60.69    8.20
  -1   6  -1  339.57   13.20
  -1   6  -1  334.47   15.90
  -1   6  -1  329.67   16.40
  -1   6  -1  329.67   11.10
  -1   6  -1  358.06   12.50
  -2   6  -1  146.29    7.50
  -2   6  -1  153.28    8.60
  -2   6  -1  140.89    8.30
  -2   6  -1  131.69   10.00
  -2   6  -1  121.09    7.10
  -2   6  -1  136.19   13.50
  -3   6  -1 2027.90   43.50
  -3   6  -1 2006.60   52.19
  -3   6  -1 2019.10   45.80
  -3   6  -1 2019.10   48.80
  -3   6  -1 2022.80   43.70
   3  -6   1 2055.79   39.50
   3  -6   1 2095.19   49.50
   3  -6   1 1972.00   40.40
  -4   6  -1   98.79    9.20
  -4   6  -1  125.49   11.00
  -4   6  -1  103.99    9.00
  -4   6  -1  122.69    9.00
   4  -6   1  116.09    7.30
   4  -6   1  117.69    7.30
  -5   6  -1  309.97   17.50
  -5   6  -1  272.37   14.40
   5  -6   1  292.87   12.70
   5  -6   1  310.87   13.10
  -6   6  -1    3.50    4.80
  -6   6  -1   -0.50    4.10
   6  -6   1    0.60    3.80
   6  -6   1   10.40    4.20
  -7   6  -1  222.98   15.00
  -7   6  -1  216.58   17.10
   7  -6   1  222.08   13.60
  -8   6  -1   41.50    8.40
  -8   6  -1   38.90    5.00
  -8   6  -1   42.60    9.20
   8  -6   1   28.20    7.50
  -9   6  -1  371.96   22.00
  -9   6  -1  356.36   23.80
  -9   6  -1  373.76   13.40
   9  -6   1  410.66   20.80
  -9  -5   1    8.60    4.90
  -9  -5   1   12.20    5.90
  -9  -5   1   -7.30    4.90
   8   5  -1   33.80    8.90
  -8  -5   1   33.30    6.30
  -8  -5   1   39.90    7.60
  -8  -5   1   32.00    7.70
   7   5  -1  189.38   13.70
  -7  -5   1  203.08   12.10
  -7  -5   1  200.58   15.50
  -7  -5   1  220.38   14.00
   6   5  -1   48.00    7.30
  -6  -5   1   34.90    7.80
  -6  -5   1   52.19    7.10
  -6  -5   1   40.60    6.80
  -6  -5   1   34.00    7.00
  -6  -5   1   30.60    6.00
   5   5  -1  587.84   20.30
   5   5  -1  587.24   22.50
   5   5  -1  579.84   20.50
  -5  -5   1  585.94   18.40
  -5  -5   1  571.84   17.70
  -5  -5   1  566.74   21.30
  -5  -5   1  568.14   19.50
  -5  -5   1  573.54   23.20
   4   5  -1    1.30    3.40
   4   5  -1    0.40    2.50
   4   5  -1   -1.60    2.90
   4   5  -1    5.40    2.90
   4   5  -1   -0.20    3.60
  -4  -5   1    1.90    2.80
  -4  -5   1   -0.40    2.40
  -4  -5   1    3.50    3.40
  -4  -5   1   -0.30    2.50
  -4  -5   1    4.30    4.30
   3   5  -1   13.00    3.10
   3   5  -1    9.40    2.40
   3   5  -1    7.90    3.00
   3   5  -1   12.10    5.20
  -3  -5   1   12.40    3.10
  -3  -5   1    4.90    4.20
  -3  -5   1   12.00    2.50
  -3  -5   1   14.10    4.20
  -3  -5   1    5.80    2.40
   2   5  -1   84.59    5.70
   2   5  -1   95.09    7.60
   2   5  -1   81.69    5.80
   2   5  -1   84.39    4.60
   2   5  -1   82.09    8.30
  -2  -5   1   81.39    7.70
  -2  -5   1   91.09    3.60
  -2  -5   1   81.29    3.00
  -2  -5   1   86.29    8.40
  -2  -5   1   81.69    5.20
   1   5  -1  852.21   25.30
   1   5  -1  818.22   18.70
   1   5  -1  811.52   19.80
   1   5  -1  846.02   23.00
   1   5  -1  806.42   17.10
  -1  -5   1  850.51   25.50
   0   5  -1  401.36   14.00
   0   5  -1  375.26   16.00
   0   5  -1  385.76   10.70
   0   5  -1  397.86   15.90
   0   5  -1  406.16   10.70
  -1   5  -1   55.39    7.60
  -1   5  -1   63.59    5.00
  -1   5  -1   58.29    7.50
  -1   5  -1   56.89    4.50
  -1   5  -1   55.39    5.60
  -2   5  -1    0.90    2.10
  -2   5  -1    5.90    4.60
  -2   5  -1    0.20    3.40
  -2   5  -1    5.90    2.90
  -2   5  -1    1.70    2.80
   2  -5   1    1.50    2.20
   2  -5   1    1.90    3.20
   2  -5   1    5.30    2.00
  -3   5  -1   82.89    7.10
  -3   5  -1   85.09    6.50
  -3   5  -1  100.99    8.90
  -3   5  -1   98.29    7.70
   3  -5   1   82.19    5.90
   3  -5   1   88.09    8.40
  -4   5  -1  233.68   12.00
  -4   5  -1  222.48   13.40
  -4   5  -1  236.48   14.80
  -4   5  -1  222.58   11.10
   4  -5   1  236.28   10.50
   4  -5   1  201.98   12.30
   4  -5   1  219.68   10.10
  -5   5  -1  753.42   30.30
  -5   5  -1  751.42   24.30
  -5   5  -1  809.32   28.00
  -5   5  -1  775.72   24.80
   5  -5   1  804.02   23.40
   5  -5   1  769.02   22.70
  -6   5  -1   66.19    8.70
   6  -5   1   64.19    7.60
   6  -5   1   60.89    7.90
  -7   5  -1   97.19   12.20
  -7   5  -1  101.29   11.80
   7  -5   1   89.79    9.60
  -8   5  -1    1.20    4.80
  -8   5  -1    2.50    2.60
  -8   5  -1   -8.00    4.80
   8  -5   1    0.30    4.00
  -9   5  -1   24.40    7.50
  -9   5  -1   27.20    4.20
   9  -5   1   11.50    6.90
 -10  -4   1  133.29   11.20
   9   4  -1   20.60    7.90
  -9  -4   1    4.00    5.10
  -9  -4   1    4.90    5.10
   8   4  -1  256.67   17.70
  -8  -4   1  281.07   18.90
  -8  -4   1  245.78   14.80
  -8  -4   1  253.47   15.20
   7   4  -1   67.29    9.80
  -7  -4   1   70.29    8.30
  -7  -4   1   60.19    8.50
  -7  -4   1   61.09    9.10
   6   4  -1    8.10    4.80
  -6  -4   1   21.30    5.20
  -6  -4   1   18.70    4.90
  -6  -4   1   14.50    5.10
  -6  -4   1   18.00    5.20
  -6  -4   1   16.20    5.70
   5   4  -1   85.19    8.00
   5   4  -1   77.49    8.90
   5   4  -1   76.19    7.50
   5   4  -1   74.99    7.30
   5   4  -1   75.39    7.80
  -5  -4   1   69.29    6.70
  -5  -4   1   69.79    7.60
  -5  -4   1   92.79    7.70
  -5  -4   1   78.89    7.60
  -5  -4   1   82.39    9.00
   4   4  -1 1073.49   27.90
   4   4  -1 1091.79   28.10
   4   4  -1 1052.09   30.70
   4   4  -1 1067.29   28.90
   4   4  -1 1100.49   26.90
  -4  -4   1 1073.89   26.60
  -4  -4   1 1135.69   31.60
  -4  -4   1 1064.39   26.20
  -4  -4   1 1123.99   29.10
  -4  -4   1 1087.39   27.00
   3   4  -1   71.89    5.90
   3   4  -1   69.79    5.70
   3   4  -1   72.29    6.40
   3   4  -1   74.79    7.80
   3   4  -1   80.49    7.80
  -3  -4   1   78.09    5.80
  -3  -4   1   79.59    8.10
  -3  -4   1   78.49    7.00
  -3  -4   1   60.69    5.60
   2   4  -1  964.10   24.40
   2   4  -1  909.61   19.50
   2   4  -1  908.21   21.50
   2   4  -1  903.71   21.40
   2   4  -1  940.31   25.70
  -2  -4   1  911.01   19.30
  -2  -4   1  938.21   20.10
  -2  -4   1  909.11   20.20
  -2  -4   1  962.60   25.70
  -2  -4   1  912.71   23.90
   1   4  -1   24.10    3.60
   1   4  -1   26.60    2.30
   1   4  -1   28.00    4.90
   1   4  -1   26.20    4.40
   1   4  -1   22.40    2.80
  -1  -4   1   31.30    4.60
  -1  -4   1   22.70    4.90
   0   4  -1  660.83   20.80
   0   4  -1  715.43   15.50
   0   4  -1  681.93   18.60
   0   4  -1  728.53   21.00
   0   4  -1  699.03   15.60
   0  -4   1  737.83   22.20
  -1   4  -1  229.48   11.00
  -1   4  -1  216.58    7.70
  -1   4  -1  220.98    8.10
  -1   4  -1  218.98   11.90
   1  -4   1  223.28    5.90
   1  -4   1  219.18   10.70
  -2   4  -1 2815.42   53.29
  -2   4  -1 2822.32   57.59
  -2   4  -1 2809.12   54.89
  -2   4  -1 2720.13   53.29
   2  -4   1 2787.22   51.79
   2  -4   1 2793.52   52.19
   2  -4   1 2766.12   57.39
  -3   4  -1   13.10    3.20
  -3   4  -1   15.30    3.80
  -3   4  -1    8.70    3.80
  -3   4  -1   16.90    4.40
   3  -4   1   14.30    4.40
   3  -4   1   15.90    3.70
   3  -4   1   14.70    3.20
  -4   4  -1  301.77   14.70
  -4   4  -1  309.47   13.50
  -4   4  -1  294.07   14.20
  -4   4  -1  280.67   12.30
   4  -4   1  300.97   12.20
   4  -4   1  285.37   16.60
  -5   4  -1  145.39   10.00
  -5   4  -1  138.79   11.20
  -5   4  -1  127.49   10.30
  -5   4  -1  133.19    9.70
   5  -4   1  131.19   12.10
   5  -4   1  128.29    8.90
   5  -4   1  138.69    9.20
  -6   4  -1  224.08   13.70
  -6   4  -1  230.38   15.10
   6  -4   1  225.38   13.40
   6  -4   1  215.88   12.30
  -7   4  -1    5.20    4.70
  -7   4  -1    8.20    5.20
   7  -4   1   -3.20    3.70
  -8   4  -1  545.75   17.50
  -8   4  -1  621.44   26.80
  -8   4  -1  554.74   26.80
   8  -4   1  563.54   23.20
  -9   4  -1    9.20    5.70
  -9   4  -1    1.30    2.50
  -9   4  -1   -6.40    4.70
   9  -4   1   -9.10    5.60
 -10   4  -1   22.50    4.80
  10  -4   1   23.70    8.40
  10   3  -1   24.40    8.20
 -10  -3   1   31.00    9.20
 -10  -3   1   15.40    5.40
 -10  -3   1   19.40    7.40
   9   3  -1   20.60    7.00
  -9  -3   1    5.60    4.50
  -9  -3   1    7.20    5.70
  -9  -3   1    3.00    4.70
   8   3  -1  379.26   20.60
  -8  -3   1  370.46   21.30
  -8  -3   1  365.16   17.40
   7   3  -1  353.96   21.40
  -7  -3   1  329.17   15.90
  -7  -3   1  299.67   18.00
  -7  -3   1  316.07   16.40
   6   3  -1 1214.58   32.10
   6   3  -1 1237.88   34.80
  -6  -3   1 1188.98   32.70
  -6  -3   1 1231.68   34.50
  -6  -3   1 1253.07   36.70
  -6  -3   1 1214.08   32.20
  -6  -3   1 1235.98   33.70
   5   3  -1  193.08   10.90
   5   3  -1  193.88   11.00
   5   3  -1  197.28   10.50
   5   3  -1  196.58   11.50
   5   3  -1  160.78   11.20
  -5  -3   1  191.68   10.80
  -5  -3   1  179.78   10.70
  -5  -3   1  157.88    9.30
  -5  -3   1  171.28   10.30
  -5  -3   1  184.78   12.20
   4   3  -1    3.30    2.90
   4   3  -1   -1.40    3.60
   4   3  -1    3.80    4.10
   4   3  -1    0.90    2.40
   4   3  -1   10.70    4.20
  -4  -3   1    3.30    3.20
  -4  -3   1    5.40    3.10
  -4  -3   1    6.50    4.10
  -4  -3   1   -2.30    3.20
  -4  -3   1    1.50    3.40
   3   3  -1  527.45   16.10
   3   3  -1  485.05   15.00
   3   3  -1  501.65   15.50
   3   3  -1  510.15   17.60
   3   3  -1  490.75   14.40
  -3  -3   1  508.45   15.90
  -3  -3   1  483.25   14.30
  -3  -3   1  513.15   17.50
  -3  -3   1  505.55   14.80
  -3  -3   1  476.05   14.50
   2   3  -1 1892.41   40.70
   2   3  -1 1781.72   37.00
   2   3  -1 1889.01   39.20
   2   3  -1 1855.11   35.60
  -2  -3   1 1863.11   39.00
  -2  -3   1 1940.61   40.90
  -2  -3   1 1852.41   37.00
  -2  -3   1 1878.41   35.80
  -2  -3   1 1916.61   36.40
   1   3  -1 1585.34   28.10
   1   3  -1 1502.45   29.30
   1   3  -1 1512.65   32.10
   1   3  -1 1445.46   30.10
   1   3  -1 1527.65   33.60
  -1  -3   1 1545.35   28.20
  -1  -3   1 1517.05   32.20
  -1  -3   1 1486.75   27.70
  -1  -3   1 1492.65   33.10
  -1  -3   1 1478.55   28.30
   0   3  -1 4745.53   81.99
   0   3  -1 4642.74   86.99
   0   3  -1 4595.74   87.99
   0   3  -1 4718.53   81.79
   0  -3   1 4731.43   87.89
   0  -3   1 4727.73   80.99
   0  -3   1 4656.53   80.09
  -1   3  -1  782.22   17.50
  -1   3  -1  781.02   22.10
  -1   3  -1  751.12   17.30
  -1   3  -1  806.22   20.50
  -1   3  -1  777.82   17.10
   1  -3   1  749.62   16.90
   1  -3   1  781.62   16.20
   1  -3   1  788.72   20.10
  -2   3  -1    6.90    2.60
  -2   3  -1    2.90    2.60
  -2   3  -1    6.40    3.60
  -2   3  -1    3.50    3.00
   2  -3   1    2.50    2.40
   2  -3   1    5.70    3.10
   2  -3   1    4.70    2.60
  -3   3  -1  582.84   18.20
  -3   3  -1  578.44   17.20
  -3   3  -1  562.74   17.00
  -3   3  -1  600.54   18.90
   3  -3   1  556.44   18.40
   3  -3   1  541.75   16.00
   3  -3   1  584.04   16.70
  -4   3  -1 1266.27   33.00
  -4   3  -1 1298.97   33.70
  -4   3  -1 1262.77   31.40
  -4   3  -1 1324.57   32.10
   4  -3   1 1242.38   33.00
   4  -3   1 1255.67   30.40
  -5   3  -1 1508.85   39.80
  -5   3  -1 1437.66   37.10
  -5   3  -1 1575.04   40.50
  -5   3  -1 1519.75   38.20
   5  -3   1 1459.15   39.10
   5  -3   1 1525.25   37.00
   5  -3   1 1600.94   37.60
  -6   3  -1  723.43   19.70
  -6   3  -1  736.63   26.80
  -6   3  -1  717.53   25.00
   6  -3   1  694.63   23.80
   6  -3   1  720.73   24.40
  -7   3  -1   82.59    9.70
  -7   3  -1   89.69   11.30
   7  -3   1   87.59   10.40
  -8   3  -1   11.50    6.30
  -8   3  -1   17.00    3.90
  -8   3  -1   13.40    6.80
   8  -3   1    4.70    5.80
  -9   3  -1   59.59   10.20
  -9   3  -1   88.49   11.90
  -9   3  -1   62.59    7.10
   9  -3   1   69.69   10.60
 -10   3  -1  206.18   16.90
 -10   3  -1  189.38   10.20
 -10   3  -1  210.68   18.30
  10  -3   1  185.28   16.90
  10   2  -1   25.90    8.00
 -10  -2   1   31.10    7.90
 -10  -2   1   34.50    6.50
 -10  -2   1   22.90    9.30
   9   2  -1  307.57   19.10
  -9  -2   1  263.37   14.60
  -9  -2   1  269.27   19.10
   8   2  -1  101.39   11.00
  -8  -2   1   94.29    8.90
  -8  -2   1   80.29   10.80
  -8  -2   1   96.09   10.40
   7   2  -1    6.50    3.80
  -7  -2   1    7.20    4.20
  -7  -2   1    3.70    2.90
  -7  -2   1    6.20    5.90
   6   2  -1   -1.90    3.90
   6   2  -1    2.60    2.50
  -6  -2   1    3.70    3.30
  -6  -2   1   -0.10    3.40
  -6  -2   1    1.90    3.70
  -6  -2   1    2.90    3.30
  -6  -2   1   11.30    5.00
   5   2  -1 1777.02   41.30
   5   2  -1 1681.23   40.90
   5   2  -1 1714.23   38.40
   5   2  -1 1644.64   42.20
  -5  -2   1 1669.73   38.70
  -5  -2   1 1723.33   42.40
  -5  -2   1 1724.73   40.90
  -5  -2   1 1712.73   40.00
  -5  -2   1 1715.93   40.50
   4   2  -1  220.28    9.80
   4   2  -1  209.38   11.70
   4   2  -1  235.78   11.40
   4   2  -1  219.18   11.10
  -4  -2   1  217.38   10.60
  -4  -2   1  218.68   10.50
  -4  -2   1  229.28   10.00
  -4  -2   1  251.07   12.40
  -4  -2   1  219.18   10.30
   3   2  -1 2430.76   51.29
   3   2  -1 2534.35   49.20
   3   2  -1 2463.15   49.00
   3   2  -1 2467.65   49.60
   3   2  -1 2494.35   49.60
  -3  -2   1 2405.76   49.00
  -3  -2   1 2432.06   48.80
  -3  -2   1 2551.34   51.59
  -3  -2   1 2496.95   49.10
  -3  -2   1 2553.94   59.19
   2   2  -1  101.29    5.00
   2   2  -1  103.79    6.10
   2   2  -1  106.19    7.30
   2   2  -1  101.29    5.90
   2   2  -1  104.29    7.10
  -2  -2   1  105.49    6.90
  -2  -2   1  100.19    4.90
  -2  -2   1  102.29    5.80
  -2  -2   1  107.99    5.70
  -2  -2   1  107.49    6.00
   1   2  -1 1205.08   24.50
   1   2  -1 1189.08   26.20
   1   2  -1 1233.58   22.00
   1   2  -1 1189.88   23.90
   1   2  -1 1212.98   25.30
  -1  -2   1 1240.48   22.10
  -1  -2   1 1239.38   26.50
  -1  -2   1 1239.78   25.60
  -1  -2   1 1195.68   23.50
  -1  -2   1 1139.39   24.10
   0   2  -1  127.59    4.70
   0   2  -1  132.89    5.00
   0   2  -1  128.59    3.50
   0   2  -1  131.89    7.00
   0  -2   1  140.79    7.40
   0  -2   1  129.19    4.20
   0  -2   1  122.59    4.20
   1  -2   1 5633.34   98.79
   1  -2   1 5420.96   96.29
  -2   2  -1  113.29    6.20
  -2   2  -1  130.39    7.40
  -2   2  -1  112.99    6.30
  -2   2  -1  116.99    7.30
   2  -2   1  116.89    6.00
   2  -2   1  121.89    6.10
   2  -2   1  113.29    6.80
   2  -2   1  124.39    7.20
  -3   2  -1 1595.94   34.50
  -3   2  -1 1598.34   35.90
  -3   2  -1 1587.34   35.60
  -3   2  -1 1547.65   34.20
   3  -2   1 1593.54   35.80
   3  -2   1 1594.14   35.90
   3  -2   1 1513.75   33.90
   3  -2   1 1540.55   33.70
  -4   2  -1  406.86   14.80
  -4   2  -1  397.36   15.90
  -4   2  -1  396.56   15.80
  -4   2  -1  389.36   17.30
   4  -2   1  368.26   14.30
   4  -2   1  369.96   15.30
  -5   2  -1  194.68   10.90
  -5   2  -1  171.18   11.50
  -5   2  -1  190.08   12.10
  -5   2  -1  212.48    9.00
  -5   2  -1  194.98   11.40
   5  -2   1  194.68   11.70
   5  -2   1  192.68   11.10
   5  -2   1  203.68   11.10
  -6   2  -1   27.30    6.70
  -6   2  -1   27.90    4.10
  -6   2  -1   32.30    6.30
   6  -2   1   23.80    5.70
   6  -2   1   32.70    6.40
  -7   2  -1  623.24   19.00
   7  -2   1  637.94   24.30
  -8   2  -1   46.30    8.20
  -8   2  -1   55.79    6.10
  -8   2  -1   61.39    9.40
   8  -2   1   48.90    8.40
  -9   2  -1  131.89   13.20
  -9   2  -1  129.49    9.00
  -9   2  -1  121.69   15.30
   9  -2   1  114.59   12.50
 -10   2  -1    6.60    7.00
 -10   2  -1    8.10    4.60
 -10   2  -1    0.80    5.80
  10  -2   1   14.30    6.50
  10   1  -1   -2.60    4.80
 -10  -1   1  -10.00    4.30
 -10  -1   1   -2.90    3.40
 -10  -1   1    0.30    6.10
   9   1  -1   38.60    8.50
  -9  -1   1   44.00    8.70
  -9  -1   1   43.40    9.20
  -9  -1   1   35.90    6.20
   8   1  -1  238.88   15.90
  -8  -1   1  241.18   12.20
  -8  -1   1  275.97   17.70
  -8  -1   1  245.58   15.80
   7   1  -1   28.00    4.90
   7   1  -1   56.09    9.90
  -7  -1   1   30.70    7.20
  -7  -1   1   45.50    7.40
  -7  -1   1   38.30    5.60
   6   1  -1  685.03   23.60
   6   1  -1  646.74   19.50
  -6  -1   1  616.34   22.60
  -6  -1   1  660.23   23.70
  -6  -1   1  649.34   23.70
  -6  -1   1  600.14   21.50
  -6  -1   1  681.73   20.40
   5   1  -1   79.19    7.30
   5   1  -1   81.99    6.30
   5   1  -1   79.19    7.60
   5   1  -1   59.59    7.50
  -5  -1   1   78.09    7.90
  -5  -1   1   86.49    8.00
  -5  -1   1   77.29    6.30
  -5  -1   1   80.59    7.30
  -5  -1   1   81.39    7.80
   4   1  -1   15.70    3.30
   4   1  -1   12.30    4.30
   4   1  -1   24.20    5.20
  -4  -1   1   17.60    4.00
  -4  -1   1   14.70    4.00
  -4  -1   1   15.40    3.40
  -4  -1   1   19.50    4.70
   3   1  -1  289.57    9.80
   3   1  -1  294.27   11.10
   3   1  -1  277.87   10.90
   3   1  -1  293.87   12.00
  -3  -1   1  295.37   11.00
  -3  -1   1  278.07   10.70
  -3  -1   1  291.77   11.00
  -3  -1   1  292.17   11.40
  -3  -1   1  258.87    9.10
   2   1  -1 2965.40   55.69
   2   1  -1 3029.50   54.79
   2   1  -1 3079.49   57.19
   2   1  -1 2958.30   55.69
  -2  -1   1 2961.60   54.59
  -2  -1   1 2925.31   55.49
  -2  -1   1 3063.69   56.59
  -2  -1   1 2903.01   55.39
  -2  -1   1 3041.80   55.29
   1   1  -1  130.29    5.70
   1   1  -1  131.79    5.20
   1   1  -1  137.79    5.50
   1   1  -1  129.09    5.20
  -1  -1   1  132.89    4.30
  -1  -1   1  125.39    5.00
  -1  -1   1  125.29    5.10
  -1  -1   1  130.89    5.60
  -1  -1   1  130.59    5.20
  -1   1  -1   69.29    4.10
  -1   1  -1   66.79    4.40
  -1   1  -1   69.89    3.90
  -1   1  -1   67.29    4.00
   1  -1   1   67.39    4.50
   1  -1   1   69.79    3.80
   1  -1   1   69.89    3.80
   1  -1   1   70.29    4.00
  -2   1  -1   40.00    4.40
  -2   1  -1   41.20    4.90
  -2   1  -1   47.30    4.50
  -2   1  -1   40.50    4.90
   2  -1   1   36.80    4.30
   2  -1   1   46.80    4.90
   2  -1   1   41.10    4.90
   2  -1   1   39.60    4.30
  -3   1  -1  505.45   15.30
  -3   1  -1  530.15   16.60
  -3   1  -1  518.45   15.60
  -3   1  -1  516.55   16.20
   3  -1   1  525.35   15.50
   3  -1   1  510.45   15.40
   3  -1   1  535.85   16.30
   3  -1   1  524.95   16.60
  -4   1  -1  714.33   20.80
  -4   1  -1  731.03   25.40
  -4   1  -1  735.23   22.20
  -4   1  -1  687.23   17.80
   4  -1   1  713.23   20.90
   4  -1   1  718.63   21.60
  -5   1  -1  220.38   20.60
  -5   1  -1  229.58   13.00
  -5   1  -1  239.08   12.30
  -5   1  -1  253.07   10.00
   5  -1   1  221.98   11.90
   5  -1   1  263.77   13.70
   5  -1   1  234.28   12.30
  -6   1  -1  259.47   15.10
  -6   1  -1  248.68   13.80
  -6   1  -1  261.07   11.00
   6  -1   1  270.07   16.20
   6  -1   1  242.48   14.00
  -7   1  -1    5.80    5.70
  -7   1  -1    4.00    2.70
  -7   1  -1   -5.90    3.40
   7  -1   1    7.40    4.60
  -8   1  -1   57.29    9.50
  -8   1  -1   76.39   10.00
  -8   1  -1   67.69    6.90
   8  -1   1   59.19   10.10
  -9   1  -1   55.39    9.80
  -9   1  -1   44.90    9.20
  -9   1  -1   55.39    7.00
   9  -1   1   69.59   10.70
 -10   1  -1  127.79    9.70
 -10   1  -1  148.39   14.60
 -10   1  -1  137.29   15.30
  10  -1   1  153.88   14.50
  10   0  -1  435.16   23.60
 -10   0   1  425.56   23.90
 -10   0   1  386.76   16.20
 -10   0   1  355.26   23.20
   9   0  -1   10.60    5.90
  -9   0   1    1.60    3.20
  -9   0   1   -1.90    5.30
  -9   0   1   -1.00    4.30
   8   0  -1  249.68   16.90
  -8   0   1  265.77   12.30
  -8   0   1  283.77   16.70
  -8   0   1  258.67   17.70
   7   0  -1    0.00    5.20
  -7   0   1    2.20    2.80
  -7   0   1   -0.60    4.10
  -7   0   1    1.70    4.20
   6   0  -1 1260.37   34.90
   6   0  -1 1226.58   29.10
  -6   0   1 1297.17   29.70
  -6   0   1 1331.07   37.30
  -6   0   1 1222.08   34.10
  -6   0   1 1243.98   36.00
   5   0  -1    2.60    3.40
   5   0  -1    0.10    2.20
  -5   0   1   -0.10    3.00
  -5   0   1    2.50    4.00
  -5   0   1   -3.10    1.80
  -5   0   1    2.40    3.00
   4   0  -1 2660.53   49.90
   4   0  -1 2600.24   54.29
   4   0  -1 2703.63   55.99
  -4   0   1 2549.24   49.80
  -4   0   1 2627.04   54.19
  -4   0   1 2704.93   55.89
   3   0  -1    4.90    2.90
   3   0  -1    8.40    3.70
   3   0  -1    5.80    2.10
   3   0  -1   -1.40    2.70
  -3   0   1    4.00    2.00
  -3   0   1    9.60    3.30
  -3   0   1    1.70    2.90
  -3   0   1    5.20    3.10
  -3   0   1    5.40    3.30
   2   0  -1 4946.10   88.79
   2   0  -1 4897.31   89.39
   2   0  -1 4964.10   86.09
   2   0  -1 5009.60   88.89
  -2   0   1 4927.01   88.79
  -2   0   1 5095.49   89.29
  -2   0   1 4974.80   89.59
  -2   0   1 4949.70   88.69
   1   0  -1    0.10    1.60
  -1   0   1    1.80    1.60
  -1   0   1    4.10    2.10
  -1   0  -1   -0.70    1.80
  -1   0  -1   -0.30    1.50
   1   0   1    2.90    1.80
   1   0   1    0.50    1.60
  -3   0  -1    3.70    3.00
  -3   0  -1    3.10    3.00
  -3   0  -1    2.90    3.50
  -3   0  -1    4.70    3.00
  -3   0  -1   -0.50    2.00
   3   0   1    0.00    2.80
   3   0   1    1.20    2.80
   3   0   1   -2.80    2.50
   3   0   1    2.30    3.10
  -4   0  -1  316.17   13.60
  -4   0  -1  308.17   13.30
  -4   0  -1  291.17   12.10
  -4   0  -1  304.47   12.80
  -4   0  -1  303.07   10.70
   4   0   1  339.27   14.30
   4   0   1  309.97   13.40
   4   0   1  283.47   12.20
   4   0   1  313.47   13.20
  -5   0  -1   -2.80    3.00
  -5   0  -1   -3.50    1.80
  -5   0  -1   -4.40    3.70
  -5   0  -1   -4.00    2.60
  -5   0  -1    2.90    3.20
   5   0   1   -4.80    3.00
   5   0   1   -0.20    3.40
   5   0   1    1.70    3.70
   5   0   1   -2.40    2.80
  -6   0  -1 1556.24   42.90
  -6   0  -1 1599.04   40.50
  -6   0  -1 1607.74   36.80
  -6   0  -1 1536.65   39.60
  -6   0  -1 1602.54   41.90
   6   0   1 1555.84   41.50
   6   0   1 1571.74   42.00
   6   0   1 1571.84   40.30
  -7   0  -1   -1.80    3.00
  -7   0  -1    1.20    4.00
  -7   0  -1    3.70    4.80
   7   0   1    2.60    3.90
  -8   0  -1  937.21   34.10
  -8   0  -1  914.71   26.80
  -8   0  -1  951.90   32.40
   8   0   1  964.10   32.70
  -9   0  -1    7.70    4.90
  -9   0  -1   -1.60    3.40
  -9   0  -1   -1.10    5.60
   9   0   1   10.00    5.90
 -10   0  -1    4.00    5.80
 -10   0  -1    8.30    4.00
 -10   0  -1    3.70    5.30
  10   0   1    1.40    4.90
  10  -1  -1   16.40    6.90
 -10   1   1   21.80    8.30
 -10   1   1    3.10    7.70
 -10   1   1   15.90    4.10
   9  -1  -1   66.69   10.90
  -9   1   1   75.99   11.00
  -9   1   1   69.89   10.50
  -9   1   1   61.49    6.20
   8  -1  -1  443.26   21.60
  -8   1   1  478.95   21.90
  -8   1   1  496.85   16.60
  -8   1   1  489.15   24.00
   7  -1  -1   69.39    9.80
  -7   1   1   68.39    6.00
  -7   1   1   55.69   10.00
  -7   1   1   43.70   10.40
   6  -1  -1  556.54   20.90
  -6   1   1  546.45   22.10
  -6   1   1  528.35   15.30
  -6   1   1  564.84   21.20
   5  -1  -1   17.30    5.20
   5  -1  -1   12.80    4.20
   5  -1  -1   13.40    4.60
  -5   1   1   14.40    4.60
  -5   1   1   18.20    4.80
  -5   1   1   20.30    8.20
  -5   1   1   15.40    4.90
  -5   1   1   13.70    2.70
   4  -1  -1  218.98   10.70
   4  -1  -1  244.88   12.10
  -4   1   1  236.28   19.70
  -4   1   1  260.37   12.50
  -4   1   1  241.78    7.80
  -4   1   1  248.18   11.30
   3  -1  -1 1180.68   28.20
   3  -1  -1 1178.38   27.10
   3  -1  -1 1189.48   27.30
  -3   1   1 1183.08   27.30
  -3   1   1 1199.48   28.50
  -3   1   1 1172.18   22.70
  -3   1   1 1209.28   28.40
  -3   1   1 1214.68   27.70
   2  -1  -1 3115.29   57.89
   2  -1  -1 3151.08   58.69
   2  -1  -1 3123.39   57.99
  -2   1   1 3149.58   53.89
  -2   1   1 3088.09   57.99
  -2   1   1 3148.59   58.19
  -2   1   1 3214.58   58.89
   1  -1  -1   40.90    3.30
   1  -1  -1   37.40    2.90
   1  -1  -1   38.70    2.90
  -1   1   1   40.80    3.70
  -1   1   1   39.70    3.00
  -1   1   1   39.80    3.10
  -1  -1  -1  207.38    7.70
  -1  -1  -1  207.08    6.50
   1   1   1  221.18    6.00
   1   1   1  210.18    5.90
   1   1   1  217.48    6.00
   1   1   1  217.28    7.60
   1   1   1  212.48    7.00
  -2  -1  -1    8.80    2.60
  -2  -1  -1   12.20    2.70
  -2  -1  -1   16.00    2.90
  -2  -1  -1   18.60    3.30
  -2  -1  -1   17.40    2.90
   2   1   1   15.90    2.90
   2   1   1   10.70    2.70
   2   1   1   13.20    3.40
   2   1   1   11.10    3.10
   2   1   1   12.30    3.10
  -3  -1  -1  969.10   24.00
  -3  -1  -1  959.70   22.80
  -3  -1  -1  954.10   23.60
  -3  -1  -1  925.61   22.00
  -3  -1  -1  941.51   22.80
   3   1   1  961.60   23.20
   3   1   1  977.60   22.40
   3   1   1  964.20   23.20
   3   1   1 1005.60   24.60
   3   1   1  979.50   23.60
  -4  -1  -1  655.23   20.50
  -4  -1  -1  671.63   19.70
  -4  -1  -1  659.93   18.40
  -4  -1  -1  697.63   19.90
  -4  -1  -1  724.53   21.60
   4   1   1  715.63   21.40
   4   1   1  685.93   20.30
   4   1   1  673.13   20.50
   4   1   1  683.83   20.00
   4   1   1  697.93   18.80
  -5  -1  -1  177.88   10.40
  -5  -1  -1  182.98   11.20
  -5  -1  -1  181.38   10.50
  -5  -1  -1  175.68   11.10
  -5  -1  -1  177.98    9.50
   5   1   1  185.98   11.80
   5   1   1  166.58   10.60
   5   1   1  177.28    9.00
   5   1   1  176.28   10.90
  -6  -1  -1   66.79    8.20
  -6  -1  -1   91.19    9.30
  -6  -1  -1   71.89    8.10
  -6  -1  -1   80.69    7.30
  -6  -1  -1   87.29    8.50
   6   1   1   76.39    9.80
   6   1   1   70.09    8.60
   6   1   1   84.99    8.80
  -7  -1  -1    5.10    5.00
  -7  -1  -1   11.00    4.80
  -7  -1  -1   13.50    4.10
   7   1   1   -1.10    4.40
   7   1   1   14.10    5.40
  -8  -1  -1  138.89   10.30
  -8  -1  -1  102.69   12.10
  -8  -1  -1  126.89   12.00
   8   1   1  128.09   12.00
  -9  -1  -1   97.19    9.50
  -9  -1  -1  112.19   11.80
  -9  -1  -1  121.19   13.60
   9   1   1  113.39   12.50
 -10  -1  -1  101.09   12.10
 -10  -1  -1   96.29    9.60
 -10  -1  -1  112.99   14.20
  10   1   1   95.59   11.90
  10  -2  -1   30.50    7.90
 -10   2   1   19.40    3.70
 -10   2   1   36.00    8.20
 -10   2   1    5.90    6.30
   9  -2  -1  159.28   14.70
  -9   2   1  137.69   12.80
  -9   2   1  131.29   14.80
   8  -2  -1   -5.40    5.60
  -8   2   1    1.60    4.80
  -8   2   1    5.40    4.90
  -8   2   1    5.40    2.70
   7  -2  -1   88.39    9.40
  -7   2   1   82.59    5.80
   6  -2  -1   94.69    8.40
   6  -2  -1   82.59    9.20
  -6   2   1   92.49    5.30
  -6   2   1   83.89    9.70
  -6   2   1   93.69    9.00
   5  -2  -1 1631.44   38.70
   5  -2  -1 1604.74   40.40
   5  -2  -1 1577.04   38.60
  -5   2   1 1589.04   38.80
  -5   2   1 1576.44   38.70
  -5   2   1 1568.64   40.70
  -5   2   1 1665.43   41.10
  -5   2   1 1560.44   31.20
   4  -2  -1  298.57   13.40
   4  -2  -1  303.07   14.50
   4  -2  -1  293.57   12.10
  -4   2   1  290.47   13.70
  -4   2   1  298.47   12.40
  -4   2   1  289.67    7.90
  -4   2   1  301.67   13.70
   3  -2  -1  399.16   12.90
   3  -2  -1  383.86   12.50
   3  -2  -1  399.16   14.10
  -3   2   1  393.86   13.40
  -3   2   1  395.96   14.20
  -3   2   1  399.16    8.70
  -3   2   1  394.06   13.20
   2  -2  -1   33.30    4.10
   2  -2  -1   29.70    3.60
   2  -2  -1   30.40    3.80
  -2   2   1   34.60    4.00
  -2   2   1   32.70    4.00
  -2   2   1   31.60    3.70
   1  -2  -1 1048.60   20.00
   1  -2  -1 1044.70   20.00
   1  -2  -1 1066.29   21.90
  -1   2   1 1064.19   20.50
  -1   2   1 1048.20   20.50
  -1   2   1 1059.09   19.50
  -1   2   1 1071.59   22.00
   0  -2  -1  510.35   11.80
   0  -2  -1  517.15   12.60
   0   2   1  539.95   11.60
   0   2   1  544.75   12.40
   0   2   1  530.55   11.90
  -1  -2  -1  883.81   19.10
  -1  -2  -1  827.52   16.40
  -1  -2  -1  862.91   19.20
  -1  -2  -1  852.41   15.70
  -1  -2  -1  875.21   19.30
   1   2   1  883.71   19.00
   1   2   1  881.01   19.20
   1   2   1  909.91   19.40
   1   2   1  858.51   16.60
  -2  -2  -1  796.72   18.70
  -2  -2  -1  758.82   16.90
  -2  -2  -1  777.12   19.40
  -2  -2  -1  774.72   17.10
  -2  -2  -1  775.32   18.80
   2   2   1  767.32   18.80
   2   2   1  756.82   17.40
   2   2   1  768.72   17.40
   2   2   1  761.32   18.20
  -3  -2  -1   63.59    5.60
  -3  -2  -1   48.80    5.70
  -3  -2  -1   43.20    5.20
  -3  -2  -1   46.60    5.30
  -3  -2  -1   47.10    5.80
   3   2   1   50.59    5.20
   3   2   1   52.99    5.00
   3   2   1   46.80    5.20
   3   2   1   51.59    6.60
   3   2   1   51.29    5.60
  -4  -2  -1   70.49    6.80
  -4  -2  -1   64.79    7.30
  -4  -2  -1   60.19    6.70
  -4  -2  -1   55.39    6.10
  -4  -2  -1   65.39    6.20
  -4  -2  -1   64.59    7.20
   4   2   1   70.49    7.00
   4   2   1   54.89    7.00
   4   2   1   72.49    7.80
   4   2   1   68.39    6.50
   4   2   1   66.49    6.50
  -5  -2  -1 1072.29   30.40
  -5  -2  -1 1088.79   28.50
  -5  -2  -1 1094.19   31.30
  -5  -2  -1 1101.39   27.90
  -5  -2  -1 1056.49   27.90
  -5  -2  -1 1062.19   30.10
   5   2   1 1068.89   29.10
   5   2   1 1093.59   30.60
   5   2   1 1056.39   29.90
   5   2   1 1090.89   27.80
  -6  -2  -1  264.87   13.60
  -6  -2  -1  260.57   14.40
  -6  -2  -1  279.17   15.20
  -6  -2  -1  266.97   15.20
  -6  -2  -1  263.17   13.40
  -6  -2  -1  265.47   12.50
   6   2   1  275.67   15.50
   6   2   1  277.77   15.00
   6   2   1  252.97   14.60
  -7  -2  -1  600.64   22.50
  -7  -2  -1  651.43   29.90
  -7  -2  -1  595.94   20.70
   7   2   1  610.74   24.70
   7   2   1  581.54   23.20
   7   2   1  602.34   21.20
  -8  -2  -1   32.50    5.80
  -8  -2  -1   35.90    8.40
  -8  -2  -1   43.00    7.90
   8   2   1   39.10    7.70
   8   2   1   43.90    8.60
  -9  -2  -1    7.60    5.50
  -9  -2  -1   14.60    7.00
   9   2   1    7.10    5.50
 -10  -2  -1   -1.50    4.10
 -10  -2  -1    6.40    6.90
  10   2   1    2.00    6.50
  10  -3  -1   51.29   10.60
 -10   3   1   81.19   12.00
 -10   3   1   47.10   11.00
   9  -3  -1  137.89   13.30
  -9   3   1  177.88   15.00
  -9   3   1  172.18   16.20
  -9   3   1  152.88    7.40
   8  -3  -1  584.64   24.50
  -8   3   1  557.64   15.30
  -8   3   1  588.14   25.10
  -8   3   1  574.34   26.90
   7  -3  -1  146.09   11.50
  -7   3   1  132.49   13.20
  -7   3   1  136.19    6.40
  -7   3   1  135.19   12.00
   6  -3  -1  173.78   11.50
   6  -3  -1  181.58   11.60
  -6   3   1  178.98   13.10
  -6   3   1  172.78   11.90
  -6   3   1  158.68    6.30
   5  -3  -1   60.29    7.30
   5  -3  -1   60.59    7.10
   5  -3  -1   71.49    6.70
  -5   3   1   43.00    6.50
  -5   3   1   48.90    3.20
  -5   3   1   51.09    6.30
  -5   3   1   60.69    7.70
  -5   3   1   54.99    6.90
   4  -3  -1  154.48   10.10
   4  -3  -1  163.38    9.60
   4  -3  -1  145.09    8.40
  -4   3   1  155.28    5.10
  -4   3   1  147.99   10.10
  -4   3   1  159.28   11.60
  -4   3   1  162.98   10.50
  -4   3   1  150.98    8.90
   3  -3  -1  814.42   20.20
   3  -3  -1  779.12   20.00
   3  -3  -1  839.52   22.50
  -3   3   1  785.92   20.50
  -3   3   1  815.12   22.50
  -3   3   1  784.62   20.80
   2  -3  -1 1902.31   36.00
   2  -3  -1 1943.41   39.40
   2  -3  -1 1802.02   35.70
  -2   3   1 1917.91   34.20
  -2   3   1 1883.41   39.10
  -2   3   1 1883.81   36.70
  -2   3   1 1828.72   36.70
   1  -3  -1  831.62   17.50
   1  -3  -1  833.82   19.30
  -1   3   1  842.62   17.30
  -1   3   1  813.42   16.40
  -1   3   1  846.62   16.60
  -1   3   1  818.12   20.80
  -1   3   1  828.52   19.20
   0  -3  -1  617.34   14.70
   0  -3  -1  589.74   16.10
   0   3   1  606.54   14.60
   0   3   1  605.04   14.40
   0   3   1  613.14   15.60
  -1  -3  -1   53.79    5.60
  -1  -3  -1   61.09    5.00
  -1  -3  -1   55.29    5.20
   1   3   1   55.59    5.00
   1   3   1   57.69    5.80
   1   3   1   55.69    2.30
   1   3   1   58.49    4.70
   1   3   1   52.49    2.20
  -2  -3  -1 1914.41   38.20
  -2  -3  -1 1825.62   37.60
  -2  -3  -1 1798.42   38.70
  -2  -3  -1 1817.42   33.70
  -2  -3  -1 1781.72   33.70
   2   3   1 1907.31   39.20
   2   3   1 1808.32   37.70
   2   3   1 1825.02   35.00
   2   3   1 1763.92   37.00
   2   3   1 1809.92   35.10
  -3  -3  -1 2629.74   52.49
  -3  -3  -1 2572.64   52.09
  -3  -3  -1 2555.34   49.50
  -3  -3  -1 2596.04   49.20
  -3  -3  -1 2636.24   53.99
   3   3   1 2638.24   52.29
   3   3   1 2563.34   52.19
   3   3   1 2523.85   50.39
   3   3   1 2602.44   50.59
   3   3   1 2568.84   52.29
  -4  -3  -1  818.32   23.30
  -4  -3  -1  789.02   22.30
  -4  -3  -1  789.22   20.90
  -4  -3  -1  824.12   24.70
  -4  -3  -1  767.62   21.00
   4   3   1  835.02   23.50
   4   3   1  822.72   22.30
   4   3   1  779.72   21.60
   4   3   1  803.62   23.20
   4   3   1  831.72   22.70
  -5  -3  -1  166.78    9.70
  -5  -3  -1  154.28    9.80
  -5  -3  -1  150.58   10.20
  -5  -3  -1  175.68   11.80
  -5  -3  -1  153.48    9.50
   5   3   1  180.88   11.00
   5   3   1  171.88   10.30
   5   3   1  152.48   12.60
   5   3   1  147.99    9.20
  -6  -3  -1   24.00    5.40
  -6  -3  -1   21.70    5.60
  -6  -3  -1   31.60    6.50
  -6  -3  -1   18.70    4.60
  -6  -3  -1   18.90    4.90
   6   3   1   19.30    5.30
   6   3   1   34.60    6.40
   6   3   1   23.00    5.70
  -7  -3  -1   46.70    8.90
  -7  -3  -1   30.50    5.90
  -7  -3  -1   34.90    7.20
   7   3   1   53.49    8.20
   7   3   1   42.10    7.50
  -8  -3  -1  439.86   23.10
  -8  -3  -1  444.16   20.10
  -8  -3  -1  439.06   19.10
   8   3   1  450.35   21.90
   8   3   1  439.46   21.10
  -9  -3  -1  213.68   17.60
  -9  -3  -1  190.48   12.80
  -9  -3  -1  206.28   14.70
   9   3   1  208.78   17.10
 -10  -3  -1  148.39   16.10
 -10  -3  -1  173.18   12.70
  10   3   1  173.48   15.00
  10  -4  -1   72.69   11.10
   9  -4  -1   -2.00    5.40
  -9   4   1   -3.00    5.30
  -9   4   1   -4.10    1.50
  -9   4   1   -3.80    5.00
   8  -4  -1    9.00    5.90
  -8   4   1   10.20    6.30
  -8   4   1   10.20    6.00
  -8   4   1    3.40    1.90
   7  -4  -1    2.30    5.40
  -7   4   1   11.30    5.60
  -7   4   1   10.10    5.80
  -7   4   1   10.80    2.20
   6  -4  -1 1144.89   32.20
  -6   4   1 1181.58   23.90
  -6   4   1 1190.98   34.30
  -6   4   1 1223.98   36.70
   5  -4  -1   10.00    3.80
   5  -4  -1   12.40    4.20
   5  -4  -1   23.40    4.50
  -5   4   1   18.40    5.50
  -5   4   1    9.00    1.90
  -5   4   1   15.50    4.60
  -5   4   1    8.40    4.20
  -5   4   1    9.00    3.60
   4  -4  -1  347.47   14.90
   4  -4  -1  340.57   12.90
   4  -4  -1  345.57   13.10
  -4   4   1  368.56   14.10
  -4   4   1  344.17   15.40
  -4   4   1  339.67   13.80
   3  -4  -1    3.60    3.20
   3  -4  -1    1.80    2.60
  -3   4   1    1.50    3.40
  -3   4   1    2.80    1.70
  -3   4   1    5.20    2.60
  -3   4   1   -3.70    2.90
   2  -4  -1  243.78   10.60
   2  -4  -1  229.88    7.00
   2  -4  -1  229.08    6.90
  -2   4   1  244.38    8.50
  -2   4   1  233.18   10.80
  -2   4   1  238.68    7.60
  -2   4   1  234.28    8.50
   1  -4  -1   43.40    4.30
   1  -4  -1   43.90    4.80
  -1   4   1   37.30    5.00
  -1   4   1   42.60    5.30
  -1   4   1   40.30    2.60
  -1   4   1   35.30    4.00
  -1   4   1   38.80    2.70
   0  -4  -1 3784.32   69.19
   0  -4  -1 3587.44   71.99
   0   4   1 3671.93   70.19
   0   4   1 3779.52   69.59
   0   4   1 3767.42   70.89
   0   4   1 3815.52   69.19
  -1  -4  -1   57.39    5.80
  -1  -4  -1   54.79    5.30
  -1  -4  -1   50.29    5.50
   1   4   1   46.10    5.20
   1   4   1   53.59    5.30
   1   4   1   45.90    5.30
  -2  -4  -1  621.74   19.00
  -2  -4  -1  650.93   25.30
  -2  -4  -1  617.14   18.00
   2   4   1  588.84   16.70
   2   4   1  606.64   17.90
   2   4   1  603.84   14.30
   2   4   1  607.04   18.50
   2   4   1  618.74   14.50
  -3  -4  -1   10.40    3.60
  -3  -4  -1    2.60    3.20
  -3  -4  -1    4.40    2.20
  -3  -4  -1    3.50    2.30
  -3  -4  -1   11.20    4.30
   3   4   1    1.50    3.10
   3   4   1   -0.10    2.80
   3   4   1    7.50    3.00
   3   4   1    8.60    3.10
   3   4   1   -1.30    4.00
  -4  -4  -1   47.80    5.00
  -4  -4  -1   45.60    6.80
  -4  -4  -1   49.99    6.40
  -4  -4  -1   48.40    6.00
  -4  -4  -1   45.70    5.00
   4   4   1   41.60    5.90
   4   4   1   47.80    6.20
   4   4   1   53.69    5.70
   4   4   1   46.60    5.50
   4   4   1   42.80    5.60
  -5  -4  -1   -1.70    3.70
  -5  -4  -1   -4.90    2.70
  -5  -4  -1   -0.70    2.50
  -5  -4  -1    2.90    3.20
  -5  -4  -1    0.30    3.20
   5   4   1   -0.10    3.30
   5   4   1    3.50    3.60
   5   4   1    5.90    3.20
   5   4   1    5.40    3.60
   5   4   1   -5.70    3.50
  -6  -4  -1 1314.87   35.20
  -6  -4  -1 1303.97   38.60
  -6  -4  -1 1289.47   36.80
  -6  -4  -1 1274.17   37.10
   6   4   1 1275.17   36.30
   6   4   1 1286.17   35.30
  -7  -4  -1   -0.10    4.80
  -7  -4  -1   10.40    4.40
  -7  -4  -1    3.10    6.00
   7   4   1    0.80    4.00
   7   4   1   -3.80    5.30
  -8  -4  -1   90.19    9.90
  -8  -4  -1  114.29   13.00
  -8  -4  -1   87.99    9.50
   8   4   1   84.49   10.80
   8   4   1   87.69   10.40
  -9  -4  -1   -1.90    5.40
  -9  -4  -1   -6.10    4.40
  -9  -4  -1    9.10   10.60
   9   4   1   -5.80    4.80
 -10  -4  -1   43.50    9.00
 -10  -4  -1   39.30    7.30
 -10  -4  -1   52.59   12.00
  10   4   1   49.10    9.80
   9  -5  -1  190.98   14.50
  -9   5   1  186.78   17.40
   8  -5  -1   74.79   10.20
  -8   5   1   77.79   11.10
  -8   5   1   77.69    3.50
  -8   5   1   76.39   11.90
   7  -5  -1  166.58   12.20
  -7   5   1  139.59    5.30
  -7   5   1  130.19   13.40
  -7   5   1  139.29   12.30
   6  -5  -1   13.90    4.10
   6  -5  -1    1.80    4.10
  -6   5   1    8.20    4.90
  -6   5   1   -1.70    4.40
  -6   5   1   -2.60    1.30
   5  -5  -1  145.19    9.60
   5  -5  -1  137.59    8.50
  -5   5   1  141.49   11.40
  -5   5   1  151.58   10.20
  -5   5   1  122.99    9.50
   4  -5  -1  169.98    8.70
   4  -5  -1  167.68    8.50
   4  -5  -1  178.78   11.20
  -4   5   1  196.58   12.20
  -4   5   1  177.68    9.80
  -4   5   1  185.38    6.70
  -4   5   1  190.18   10.20
   3  -5  -1 2163.58   48.20
   3  -5  -1 2139.89   41.70
   3  -5  -1 2118.29   41.50
  -3   5   1 2157.98   44.60
  -3   5   1 2184.38   41.40
  -3   5   1 2214.48   45.00
  -3   5   1 2166.08   48.30
   2  -5  -1  402.86   14.60
  -2   5   1  374.36   14.60
  -2   5   1  353.36   11.00
  -2   5   1  381.16   16.20
   1  -5  -1  204.28    9.90
  -1   5   1  201.68    8.50
  -1   5   1  190.38   11.10
  -1   5   1  187.68    5.60
  -1   5   1  185.98    9.30
  -1   5   1  191.48    5.70
   0  -5  -1    3.70    5.10
   0  -5  -1    1.50    2.60
   0   5   1   -0.40    2.80
   0   5   1    2.40    2.90
   0   5   1   -2.70    3.00
   0   5   1    4.80    3.00
  -1  -5  -1  250.27   12.30
  -1  -5  -1  245.08   10.70
   1   5   1  239.48   11.70
   1   5   1  242.48   10.60
   1   5   1  250.57   10.60
  -2  -5  -1  341.67   13.50
  -2  -5  -1  356.56   13.80
  -2  -5  -1  327.37   22.80
   2   5   1  355.26    9.70
   2   5   1  345.87    9.70
   2   5   1  343.17   12.20
   2   5   1  359.06   14.60
   2   5   1  358.56   13.60
  -3  -5  -1 2287.27   41.60
  -3  -5  -1 2407.86   51.39
  -3  -5  -1 2284.87   42.20
  -3  -5  -1 2395.76   53.69
  -3  -5  -1 2400.86   50.29
   3   5   1 2417.36   49.30
   3   5   1 2307.87   46.70
   3   5   1 2369.96   52.59
   3   5   1 2406.16   51.49
   3   5   1 2389.06   46.90
  -4  -5  -1  131.69    9.20
  -4  -5  -1  148.39   10.00
  -4  -5  -1  121.69   10.10
  -4  -5  -1  136.19    6.60
  -4  -5  -1  129.39    6.20
   4   5   1  139.89    9.60
   4   5   1  140.99    8.10
   4   5   1  139.09   10.00
   4   5   1  141.39   10.60
   4   5   1  137.99    9.40
   4   5   1  155.98    8.80
  -5  -5  -1  168.98    9.00
  -5  -5  -1  180.78   11.40
  -5  -5  -1  167.28    8.70
  -5  -5  -1  175.88   12.50
  -5  -5  -1  150.78   10.60
   5   5   1  161.48   11.40
   5   5   1  152.78   10.20
   5   5   1  185.78   11.30
   5   5   1  176.28   10.80
  -6  -5  -1    0.00    3.00
  -6  -5  -1    2.00    3.80
  -6  -5  -1   -4.50    3.50
  -6  -5  -1   -7.20    3.00
  -6  -5  -1    6.70    4.60
   6   5   1    0.50    3.30
   6   5   1   -0.20    4.00
  -7  -5  -1  159.58   10.30
  -7  -5  -1  142.69   10.70
  -7  -5  -1  142.49   13.70
  -7  -5  -1  157.38   12.70
   7   5   1  154.88   13.10
  -8  -5  -1   50.09    9.60
  -8  -5  -1   44.00    7.30
  -8  -5  -1   47.60    7.40
   8   5   1   37.80    7.40
   8   5   1   49.70    8.70
  -9  -5  -1  238.38   15.80
  -9  -5  -1  259.37   19.60
  -9  -5  -1  247.58   16.30
   9   5   1  227.08   16.90
   9   5   1  239.68   17.10
   9  -6  -1   -7.00    4.90
  -9   6   1    6.60    6.10
  -9   6   1    7.00    7.40
   8  -6  -1   54.59    8.10
  -8   6   1   35.40    8.20
  -8   6   1   46.80    8.70
   7  -6  -1  498.75   19.90
  -7   6   1  489.85   21.90
  -7   6   1  467.75   11.20
  -7   6   1  481.55   11.50
  -7   6   1  495.85   24.20
   6  -6  -1  245.28   12.80
  -6   6   1  236.98    7.80
  -6   6   1  221.28    7.60
  -6   6   1  249.38   14.90
  -6   6   1  235.88   16.50
   5  -6  -1 1195.98   29.50
  -5   6   1 1246.18   37.00
  -5   6   1 1163.68   33.20
  -5   6   1 1238.78   25.70
  -5   6   1 1206.58   33.40
   4  -6  -1   52.49    4.80
   4  -6  -1   60.09    4.90
   4  -6  -1   51.29    6.70
  -4   6   1   52.79    6.60
  -4   6   1   55.29    5.80
  -4   6   1   46.70    7.10
   3  -6  -1    3.60    3.20
   3  -6  -1    0.30    1.50
  -3   6   1   -1.90    3.00
  -3   6   1   -3.70    2.50
  -3   6   1    7.10    4.20
  -3   6   1    1.60    2.00
  -3   6   1    3.20    3.40
   2  -6  -1  371.56   15.10
  -2   6   1  355.46   11.90
  -2   6   1  359.66   15.10
  -2   6   1  351.36   11.00
  -2   6   1  347.07   16.40
  -2   6   1  364.36   11.30
   1  -6  -1 4034.10   79.39
  -1   6   1 3966.80   70.19
  -1   6   1 4055.29   75.99
  -1   6   1 3937.41   80.99
  -1   6   1 4082.79   78.69
  -1   6   1 3991.90   70.19
   0  -6  -1  894.51   23.70
   0  -6  -1  872.41   28.20
   0   6   1  928.41   24.70
   0   6   1  915.31   26.10
   0   6   1  861.91   24.60
   0   6   1  908.91   23.50
  -1  -6  -1 2283.67   51.99
  -1  -6  -1 2312.17   48.80
   1   6   1 2246.28   48.40
   1   6   1 2279.67   47.70
   1   6   1 2244.38   50.39
  -2  -6  -1  152.48    9.00
  -2  -6  -1  156.48    9.70
  -2  -6  -1  155.48   10.80
   2   6   1  144.49    7.90
   2   6   1  137.39    9.60
   2   6   1  149.29    5.90
   2   6   1  151.58    5.80
   2   6   1  143.79    9.90
  -3  -6  -1  358.16   14.60
  -3  -6  -1  346.67   15.10
  -3  -6  -1  350.46   16.40
   3   6   1  326.47   15.60
   3   6   1  338.17   11.50
   3   6   1  339.47   13.40
   3   6   1  336.07   14.80
   3   6   1  343.07   11.70
  -4  -6  -1  228.28   13.00
  -4  -6  -1  233.88   12.30
  -4  -6  -1  236.98   14.30
  -4  -6  -1  230.88    6.60
  -4  -6  -1  236.88    7.20
   4   6   1  246.38   11.10
   4   6   1  241.98   19.50
   4   6   1  237.48   10.60
  -5  -6  -1 1610.74   34.20
  -5  -6  -1 1575.24   41.40
  -5  -6  -1 1572.04   40.70
  -5  -6  -1 1552.34   35.70
  -5  -6  -1 1586.44   44.20
   5   6   1 1603.54   47.70
   5   6   1 1624.74   40.10
   5   6   1 1617.84   39.00
   5   6   1 1546.25   38.40
  -6  -6  -1  262.17   11.30
  -6  -6  -1  285.67   15.50
  -6  -6  -1  258.87   11.70
  -6  -6  -1  276.27   17.60
  -6  -6  -1  304.67   19.60
   6   6   1  268.17   14.60
   6   6   1  267.87   14.60
  -7  -6  -1  373.56   15.40
  -7  -6  -1  378.26   21.40
  -7  -6  -1  371.26   18.90
   7   6   1  341.27   18.10
   7   6   1  379.96   22.30
  -8  -6  -1   -4.90    4.30
  -8  -6  -1   10.50    6.00
  -8  -6  -1   10.80    4.50
   8   6   1   19.10    5.40
   8   6   1   -0.10    5.10
  -9  -6  -1   55.39   10.60
  -9  -6  -1   57.09    8.90
  -9  -6  -1   54.99    8.00
   9   6   1   71.69   10.20
   9   6   1   60.89   10.00
   9  -7  -1   47.60    9.00
  -9   7   1   52.59   10.80
  -9   7   1   59.09   10.80
   8  -7  -1  147.59   12.00
  -8   7   1  164.88   15.10
  -8   7   1  141.59   15.30
   7  -7  -1   10.00    4.90
   7  -7  -1    7.50    4.10
  -7   7   1    5.10    1.70
  -7   7   1    2.00    1.40
  -7   7   1   12.00    6.40
  -7   7   1    1.90    5.50
   6  -7  -1    3.30    3.30
   6  -7  -1   -9.20    3.10
  -6   7   1    2.70    4.20
  -6   7   1    1.60    4.50
   5  -7  -1  145.49    8.00
   5  -7  -1  139.59    8.00
  -5   7   1  140.59    7.10
  -5   7   1  150.68   13.60
  -5   7   1  147.19   10.90
   4  -7  -1  339.77   10.00
   4  -7  -1  336.97    9.80
  -4   7   1  335.87   17.40
  -4   7   1  325.97   11.50
  -4   7   1  328.27   13.80
   3  -7  -1  381.16   17.10
  -3   7   1  433.16   14.30
  -3   7   1  409.16   19.40
  -3   7   1  448.16   18.40
  -3   7   1  424.06   14.30
  -3   7   1  398.86   13.50
   2  -7  -1  505.65   19.80
  -2   7   1  522.65   19.50
  -2   7   1  485.55   13.80
  -2   7   1  486.65   13.70
  -2   7   1  495.85   15.80
  -2   7   1  505.65   21.80
  -1   7   1   -0.90    3.00
  -1   7   1    6.20    1.60
  -1   7   1   12.20    3.50
  -1   7   1   13.70    4.70
  -1   7   1    8.20    1.70
   0  -7  -1   28.10    5.00
   0  -7  -1   31.40    7.00
   0   7   1   20.40    5.40
   0   7   1   27.20    4.70
   0   7   1   21.10    4.80
   0   7   1   28.10    4.90
  -1  -7  -1   75.39    7.40
  -1  -7  -1   66.29    8.50
   1   7   1   56.19    8.70
   1   7   1   64.29    7.10
   1   7   1   61.79    2.50
   1   7   1   60.69    2.40
   1   7   1   67.99    6.50
   1   7   1   58.49    7.60
  -2  -7  -1  666.13   24.00
  -2  -7  -1  623.34   21.40
   2   7   1  608.24   22.10
   2   7   1  607.94   18.50
   2   7   1  609.54   14.70
   2   7   1  601.14   21.00
   2   7   1  621.64   14.70
  -3  -7  -1  689.13   23.60
  -3  -7  -1  674.93   22.20
  -3  -7  -1  721.63   26.00
   3   7   1  698.33   18.40
   3   7   1  715.13   20.90
   3   7   1  709.23   18.50
  -4  -7  -1  240.78   15.20
  -4  -7  -1  232.28   12.80
  -4  -7  -1  220.38   13.60
   4   7   1  217.68   11.50
   4   7   1  244.48   11.00
   4   7   1  229.18   11.10
  -5  -7  -1    6.40    5.80
  -5  -7  -1    2.40    3.60
  -5  -7  -1    2.30    5.40
   5   7   1    9.00    4.10
   5   7   1    7.90    4.30
   5   7   1    5.30    4.10
  -6  -7  -1   51.69    7.30
  -6  -7  -1   76.39   10.60
  -6  -7  -1   61.19    8.80
  -6  -7  -1   73.99    6.00
   6   7   1   53.29    7.60
   6   7   1   60.09    8.30
  -7  -7  -1   71.29    9.90
  -7  -7  -1   68.89    6.90
  -7  -7  -1   65.79   10.10
  -7  -7  -1   68.59    6.90
   7   7   1   78.79   10.00
   7   7   1   68.19    8.90
  -8  -7  -1  217.88   11.90
  -8  -7  -1  208.28   16.30
   8   7   1  204.48   14.90
   8   7   1  198.48   15.50
  -9  -7  -1   51.19    9.10
   9   7   1   55.59    9.40
   8  -8  -1   57.39    8.20
  -8   8   1   71.69   10.60
  -8   8   1   58.49   11.00
   7  -8  -1   62.19    7.20
  -7   8   1   59.79    4.10
  -7   8   1   77.39   11.50
  -7   8   1   67.09    4.00
  -7   8   1   59.59    9.50
   6  -8  -1  254.67   13.00
   6  -8  -1  240.58   10.80
  -6   8   1  227.48   17.30
  -6   8   1  249.58    9.30
  -6   8   1  234.08   17.30
   5  -8  -1  209.28    7.90
  -5   8   1  203.78    9.00
  -5   8   1  209.48   16.30
  -5   8   1  198.58   12.50
  -4   8   1   25.00    4.80
  -4   8   1   20.10    3.70
  -4   8   1   20.70    4.80
  -4   8   1   27.50    6.80
  -3   8   1   54.59    8.00
  -3   8   1   53.19    6.00
  -3   8   1   59.99    5.90
  -3   8   1   61.29    5.80
   2  -8  -1   58.89    7.80
  -2   8   1   76.69    6.90
  -2   8   1   76.69    5.40
  -2   8   1   90.59   10.20
  -2   8   1   78.99    9.10
  -2   8   1   78.89    5.30
  -1   8   1  200.48   12.40
  -1   8   1  193.98    6.70
  -1   8   1  199.38    6.70
  -1   8   1  229.98   13.60
  -1   8   1  203.88   13.10
   0  -8  -1  617.24   20.60
   0  -8  -1  568.54   24.40
   0   8   1  579.54   11.70
   0   8   1  581.84   19.80
   0   8   1  576.84   20.60
   0   8   1  551.94   21.70
   0   8   1  549.45   20.50
  -1  -8  -1  139.19   12.50
  -1  -8  -1  150.38   10.50
   1   8   1  153.98    9.20
   1   8   1  144.49   10.50
   1   8   1  143.49    4.90
   1   8   1  133.79    9.40
   1   8   1  138.69   11.40
  -2  -8  -1   31.80    7.20
  -2  -8  -1   46.20    6.80
   2   8   1   38.00    5.00
   2   8   1   47.10    3.60
   2   8   1   43.50    4.20
  -3  -8  -1   75.99    9.90
  -3  -8  -1   87.49    9.20
  -3  -8  -1   92.69    8.20
   3   8   1   84.49    6.10
   3   8   1   91.19    7.60
   3   8   1   97.89    6.50
  -4  -8  -1   42.70    7.10
  -4  -8  -1   54.39    8.10
   4   8   1   43.70    5.70
   4   8   1   42.10    5.20
  -5  -8  -1  330.27   20.10
  -5  -8  -1  314.67   17.50
   5   8   1  302.77   14.30
   5   8   1  306.47   14.80
   5   8   1  287.27   13.60
  -6  -8  -1  184.28   15.40
  -6  -8  -1  165.68   15.40
  -6  -8  -1  165.28   13.60
   6   8   1  164.78   11.80
   6   8   1  174.68   12.30
  -7  -8  -1   24.40    3.70
  -7  -8  -1   26.90    3.30
  -7  -8  -1   13.40    6.20
  -7  -8  -1   19.70    7.40
   7   8   1   21.80    6.20
   7   8   1   18.30    5.60
  -8  -8  -1   12.00    6.30
  -8  -8  -1   -3.00    4.40
   8   8   1    5.80    5.00
   8   8   1   -2.90    3.80
   8  -9  -1   -1.20    5.60
  -8   9   1   -1.50    7.20
   7  -9  -1   -6.90    4.00
  -7   9   1    1.90    4.50
  -7   9   1  -14.50    6.80
  -6   9   1   24.10    6.10
  -6   9   1   11.50    5.80
  -6   9   1    9.20    3.10
  -5   9   1  535.05   24.50
  -5   9   1  517.25   16.50
  -5   9   1  524.85   20.40
  -4   9   1  210.58   11.90
  -4   9   1  226.78   15.40
  -4   9   1  209.18   10.50
  -4   9   1  223.58   11.70
  -3   9   1 1120.29   29.10
  -3   9   1 1163.08   29.00
  -3   9   1 1146.99   35.40
  -2   9   1   75.09    5.50
  -2   9   1   71.49    7.10
  -2   9   1   80.49    9.80
  -2   9   1   81.29    5.90
  -1   9   1    2.30    1.70
  -1   9   1   -6.20    3.20
  -1   9   1   -3.10    3.00
  -1   9   1    3.00    4.20
   0  -9  -1   67.39   10.70
   0   9   1   81.59   10.60
   0   9   1   79.79    4.00
   0   9   1   80.19    8.70
   0   9   1   82.69    3.80
  -1  -9  -1 1152.48   33.70
  -1  -9  -1 1102.79   37.60
   1   9   1 1144.99   22.50
   1   9   1 1155.68   30.30
   1   9   1 1145.09   33.70
   1   9   1 1066.29   23.00
  -2  -9  -1  113.89   12.70
  -2  -9  -1  109.99   10.30
   2   9   1  110.69   10.60
   2   9   1  104.99    8.10
   2   9   1   94.69    5.30
   2   9   1   98.99    5.60
  -3  -9  -1  714.23   29.10
  -3  -9  -1  704.13   26.00
   3   9   1  678.73   18.80
   3   9   1  685.73   18.70
  -4  -9  -1    7.80    4.10
  -4  -9  -1    1.40    3.90
  -4  -9  -1   -1.20    5.50
   4   9   1    1.30    3.50
   4   9   1    1.80    2.80
   4   9   1    6.60    3.90
  -5  -9  -1   29.90    7.70
  -5  -9  -1   17.20    7.10
  -5  -9  -1    5.60    5.30
   5   9   1   19.30    5.10
   5   9   1   34.40    6.20
  -6  -9  -1   19.60    8.20
  -6  -9  -1   16.90    6.30
   6   9   1   27.20    5.70
   6   9   1   16.20    5.20
  -7  -9  -1  380.46   23.00
  -7  -9  -1  351.26   22.90
   7   9   1  373.86   18.50
   7   9   1  354.56   18.20
  -8  -9  -1   28.70    7.20
   8   9   1   15.60    5.80
   8   9   1   12.60    5.90
  -7  10   1  145.89   15.60
  -7  10   1  133.89   12.50
  -6  10   1   55.19    8.90
  -6  10   1   50.29    9.70
  -5  10   1   70.79   10.60
  -5  10   1   83.29    8.10
  -5  10   1   70.09    8.60
  -4  10   1   -1.80    5.30
  -4  10   1    7.90    3.40
  -4  10   1   14.90    3.50
  -3  10   1  269.57   17.50
  -3  10   1  275.97   12.30
  -3  10   1  268.87   12.60
  -3  10   1  287.77   13.90
  -2  10   1   88.39   11.10
  -2  10   1   93.59    6.60
  -2  10   1  102.19    6.50
  -1  10   1  388.16   19.00
  -1  10   1  369.16   11.10
  -1  10   1  367.56   11.00
  -1  10   1  348.17   17.90
   0 -10  -1  101.09   15.60
   0  10   1  105.99   10.40
   0  10   1   95.09    5.10
   0  10   1   82.79    9.40
   0  10   1   98.99    4.80
  -1 -10  -1   41.10    9.50
   1  10   1   42.10    6.00
   1  10   1   24.90    6.90
   1  10   1   31.20    3.60
   1  10   1   30.30    3.30
  -2 -10  -1   -0.60    5.20
  -2 -10  -1    6.00    5.00
   2  10   1   -0.60    3.30
   2  10   1    6.50    2.40
  -3 -10  -1  359.36   19.60
  -3 -10  -1  343.17   21.40
   3  10   1  361.76   12.80
   3  10   1  351.36   14.90
   3  10   1  363.56   12.80
  -4 -10  -1   33.80    7.20
  -4 -10  -1   39.90    9.80
   4  10   1   32.00    5.80
   4  10   1   44.60    6.20
   4  10   1   32.80    5.10
  -5 -10  -1  319.47   20.80
  -5 -10  -1  275.57   15.40
  -5 -10  -1  287.47   18.00
   5  10   1  292.47   14.70
   5  10   1  301.27   14.80
  -6 -10  -1   18.70    6.50
  -6 -10  -1   14.60    7.70
   6  10   1   12.60    5.00
   6  10   1   12.20    5.70
  -7 -10  -1  -10.50    4.90
  -7 -10  -1   -2.80    7.40
   7  10   1    1.20    5.00
   7  10   1   -1.90    3.80
  -6  11   1   91.29   12.80
  -6  11   1  123.99   12.00
  -5  11   1   12.40    4.80
  -5  11   1   13.70    7.90
  -4  11   1  204.58   16.00
  -4  11   1  212.98   12.20
  -3  11   1    3.40    3.10
  -3  11   1   -4.40    4.70
  -3  11   1    4.30    3.50
  -2  11   1   28.80    4.40
  -2  11   1   29.20    7.10
  -2  11   1   24.20    3.80
  -2  11   1   19.90    6.10
  -1  11   1   -1.50    3.80
  -1  11   1    1.10    4.20
  -1  11   1   -4.60    2.00
  -1  11   1   -4.40    1.60
   0  11   1  320.27   10.10
   0  11   1  314.47   21.10
   0  11   1  343.57   11.40
   0  11   1  346.97   16.80
  -1 -11  -1    1.60    5.60
   1  11   1  -10.90    4.90
   1  11   1    4.40    2.30
   1  11   1    0.90    3.50
   1  11   1   -2.80    1.60
  -2 -11  -1  352.96   23.50
  -2 -11  -1  358.86   18.80
   2  11   1  345.37   11.40
   2  11   1  340.07   18.80
   2  11   1  331.87   14.50
   2  11   1  334.37   11.10
  -3 -11  -1   -2.30    4.60
  -3 -11  -1    9.10    6.80
   3  11   1    4.00    3.10
   3  11   1   -0.30    5.10
   3  11   1    2.10    2.70
  -4 -11  -1   17.20    6.30
  -4 -11  -1    9.40    7.00
   4  11   1    7.50    3.80
   4  11   1    7.20    3.30
   4  11   1   16.00    4.40
  -5 -11  -1    1.20    5.60
  -5 -11  -1   -1.80    6.50
   5  11   1    8.40    4.50
   5  11   1    7.50    3.90
  -6 -11  -1  195.58   19.00
  -6 -11  -1  239.08   18.90
   6  11   1  205.78   12.60
  -5  12   1    9.90    6.00
  -5  12   1  -13.10    4.70
  -4  12   1   17.40    6.30
  -4  12   1   25.40    5.80
  -3  12   1  177.48   10.70
  -3  12   1  215.28   16.40
  -3  12   1  175.48   14.70
  -2  12   1  261.17   11.10
  -2  12   1  281.27   11.60
  -2  12   1  296.37   18.30
  -2  12   1  277.57   18.70
  -1  12   1  172.98    7.90
  -1  12   1  137.09    7.40
  -1  12   1  162.68   12.90
  -1  12   1  154.78   14.10
   0  12   1   74.69    4.90
   0  12   1   64.29    8.10
   0  12   1   72.79    4.90
  -1 -12  -1    2.10    8.80
   1  12   1    2.70    5.60
   1  12   1    2.90    2.50
   1  12   1    2.90    2.30
   1  12   1   -1.70    3.30
  -2 -12  -1   69.19   12.30
   2  12   1   81.39    5.70
   2  12   1   76.69    5.90
   2  12   1   80.49    7.70
   2  12   1   67.99   10.60
  -3 -12  -1  236.18   25.20
   3  12   1  231.08   17.80
   3  12   1  256.67   11.00
   3  12   1  262.67   12.60
  -4 -12  -1  150.68   13.70
  -4 -12  -1  130.49   15.80
   4  12   1  152.18    9.90
   4  12   1  137.19   13.80
   4  12   1  144.49    9.30
  -5 -12  -1   96.39   16.70
   5  12   1   87.69    8.60
  -3  13   1   39.90    9.20
  -3  13   1   60.49   11.70
  -3  13   1   66.69    7.10
  -2  13   1   15.80    6.70
  -2  13   1   -1.50    5.40
  -1  13   1   45.00    8.50
  -1  13   1   36.30    7.60
   0  13   1   14.50    4.70
   0  13   1   -0.90    4.90
  -1 -13  -1  203.28   20.30
   1  13   1  194.58   16.20
   1  13   1  210.48   11.80
  -2 -13  -1    7.90    7.90
   2  13   1    6.70    3.50
   2  13   1   26.90    6.80
  -3 -13  -1   37.90   10.40
   3  13   1   34.40    8.20
   1  13  -2   47.30   11.30
   0  13  -2   -2.50    5.80
   0  13  -2   15.20    5.20
  -1  13  -2   61.19    7.70
  -1  13  -2   59.59   10.60
   4  12  -2   42.70   10.60
   3  12  -2   11.40    6.60
   3  12  -2   11.80    5.50
  -3 -12   2   -7.20    5.60
   2  12  -2   12.20    4.60
   2  12  -2   19.70    8.30
  -2 -12   2    8.30    7.50
   1  12  -2   60.29   10.60
   1  12  -2   76.19    8.50
  -1 -12   2   67.09   13.10
   0  12  -2  155.78   10.40
   0  12  -2  170.48   17.00
  -1  12  -2   56.49    5.80
  -1  12  -2   57.99   10.40
  -1  12  -2   79.59    7.80
  -2  12  -2   48.10    6.90
  -2  12  -2   66.69    7.60
  -3  12  -2    7.20    6.90
  -3  12  -2    1.90    3.40
  -4  12  -2   23.70    6.30
  -4  12  -2   20.80    7.60
   5  11  -2    4.30    5.20
  -5 -11   2   -1.20    6.30
   4  11  -2  230.58   14.00
  -4 -11   2  213.58   19.80
   3  11  -2    5.70    5.80
   2  11  -2  130.69    8.90
   2  11  -2  145.99   14.90
   2  11  -2  143.49   10.20
  -2 -11   2  132.39   15.10
   1  11  -2    3.00    5.00
   1  11  -2    3.40    4.30
   1  11  -2    1.80    4.20
  -1 -11   2   12.10    7.00
   0  11  -2   34.70    8.40
   0  11  -2   54.59    6.90
   0  11  -2   45.10    6.10
   0  11  -2   39.10    3.40
   0  11  -2   35.30    3.30
  -1  11  -2    1.20    2.70
  -1  11  -2    7.50    3.90
  -1  11  -2   12.10    5.70
  -1  11  -2    6.30    3.20
  -1  11  -2   11.80    4.10
  -2  11  -2  458.05   25.10
  -2  11  -2  453.45   17.70
  -2  11  -2  430.46   16.70
  -3  11  -2    6.80    6.00
  -3  11  -2    9.30    4.50
  -3  11  -2   -0.10    4.60
  -4  11  -2   48.80    7.40
  -5  11  -2    4.70    5.20
  -5  11  -2    2.60    5.90
   6  10  -2   60.19    9.40
  -6 -10   2   81.99   13.60
   5  10  -2   89.19   11.60
  -5 -10   2   70.79   12.60
   4  10  -2   10.80    5.10
  -4 -10   2   10.40    7.30
   3  10  -2   43.70    7.30
   3  10  -2   68.39    8.20
  -3 -10   2   53.09   10.60
   2  10  -2  207.48   16.90
   2  10  -2  240.08   12.30
   2  10  -2  214.38   11.90
  -2 -10   2  222.48   18.10
   1  10  -2  407.96   22.50
   1  10  -2  421.76   16.70
   1  10  -2  436.66   19.40
  -1 -10   2  394.66   24.00
   0  10  -2   81.49    4.80
   0  10  -2   80.49   11.10
   0  10  -2   83.59    4.80
   0  10  -2   92.09    7.20
  -1  10  -2   47.90    6.50
  -1  10  -2   28.40    4.20
  -1  10  -2   40.40    5.30
  -1  10  -2   37.70    8.20
  -2  10  -2   24.60    6.90
  -2  10  -2   17.60    4.90
  -2  10  -2   25.50    4.60
  -2  10  -2   21.80    4.80
  -3  10  -2   72.39   10.40
  -3  10  -2   65.29    7.90
  -3  10  -2   65.59    8.00
  -4  10  -2  108.79    9.70
  -4  10  -2  113.29   13.10
  -5  10  -2  250.87   15.70
  -5  10  -2  261.17   19.50
  -6  10  -2   12.70    6.60
  -6  10  -2   27.70    8.50
   7   9  -2   59.69    9.30
  -7  -9   2   29.80    9.60
   6   9  -2   -2.70    4.60
   5   9  -2  241.18   14.50
  -5  -9   2  264.87   18.90
   4   9  -2   65.59    8.20
  -4  -9   2   74.49   11.40
   3   9  -2  702.03   22.60
   3   9  -2  711.93   22.70
  -3  -9   2  742.83   31.30
   2   9  -2   51.09    6.40
   2   9  -2   47.00    6.20
  -2  -9   2   44.20    9.00
   1   9  -2   71.49    6.90
   1   9  -2   79.99    6.80
  -1  -9   2   64.79   10.40
   0   9  -2   17.60    4.50
   0   9  -2    3.60    1.90
   0   9  -2    3.60    1.90
   0   9  -2   13.10    3.90
   0  -9   2    1.00    6.60
  -1   9  -2  379.76   25.30
  -1   9  -2  418.06   14.90
  -1   9  -2  404.56   13.50
  -1   9  -2  408.46   15.70
  -2   9  -2   36.60    5.20
  -2   9  -2   25.80    7.20
  -2   9  -2   37.70    5.30
  -3   9  -2  686.23   22.30
  -3   9  -2  725.43   27.00
  -3   9  -2  678.13   22.40
  -3   9  -2  727.33   29.40
  -4   9  -2   -0.70    3.70
  -4   9  -2   -1.10    4.90
  -5   9  -2   -1.00    5.60
  -5   9  -2   11.30    4.10
   5  -9   2   -2.00    1.80
  -6   9  -2   14.60    6.70
  -6   9  -2   10.10    5.80
   6  -9   2    4.10    5.00
  -7   9  -2  153.68   16.60
  -7   9  -2  146.19   13.80
   7  -9   2  151.88   10.10
  -8  -8   2  117.39   12.00
   7   8  -2   54.99    9.20
  -7  -8   2   42.90   10.20
  -7  -8   2   50.39    6.80
  -7  -8   2   49.30    8.80
   6   8  -2  208.08   14.30
  -6  -8   2  206.78   15.20
  -6  -8   2  224.48    9.40
  -6  -8   2  223.88   17.60
  -6  -8   2  212.08   12.10
   5   8  -2  118.29    9.90
  -5  -8   2  114.89    8.30
  -5  -8   2  126.79   13.40
   4   8  -2    7.50    4.60
  -4  -8   2   17.90    6.40
   3   8  -2    8.90    3.90
  -3  -8   2    6.40    5.20
   2   8  -2  379.46   14.80
   2   8  -2  398.76   14.80
  -2  -8   2  420.06   21.90
   1   8  -2  461.05   16.40
   1   8  -2  472.95   15.60
   1   8  -2  463.85   22.20
  -1  -8   2  472.15   23.10
   0   8  -2  572.44   24.20
   0   8  -2  528.75   14.00
   0   8  -2  539.95   16.80
   0   8  -2  539.75   13.40
   0   8  -2  509.95   17.60
   0  -8   2  549.54   25.50
  -1   8  -2  138.19    8.50
  -1   8  -2  134.19   12.40
  -1   8  -2  128.99    7.20
  -1   8  -2  135.79    8.90
  -2   8  -2   77.49   10.00
  -2   8  -2   78.09    6.80
  -2   8  -2   81.59    7.00
  -3   8  -2   16.40    4.80
  -3   8  -2   23.00    4.60
  -3   8  -2   30.00    5.80
  -3   8  -2   24.90    5.30
  -4   8  -2  370.26   20.60
  -4   8  -2  317.87   15.10
  -4   8  -2  332.47   15.30
  -4   8  -2  341.37   17.00
   4  -8   2  339.17   10.00
   4  -8   2  333.07   10.10
  -5   8  -2  184.08   11.90
  -5   8  -2  213.18   13.00
  -5   8  -2  208.88   16.20
   5  -8   2  205.48   10.50
  -6   8  -2   64.99   10.50
  -6   8  -2   80.19   10.70
   6  -8   2   51.49    6.60
   6  -8   2   69.39    7.60
  -7   8  -2    8.90    5.40
   7  -8   2    5.10    4.30
   7  -8   2    2.50    5.90
  -8   8  -2   53.29   10.90
   8  -8   2   60.69    8.80
   8   7  -2   17.20    6.50
  -8  -7   2   10.50    5.30
  -8  -7   2   -5.60    6.10
  -8  -7   2    1.70    6.20
   7   7  -2   10.30    6.40
  -7  -7   2   18.80    6.70
  -7  -7   2    6.90    4.80
  -7  -7   2   18.00    5.30
  -7  -7   2   -3.70    5.40
  -6  -7   2  269.37   16.60
  -6  -7   2  273.87   12.00
  -6  -7   2  259.87   13.10
  -6  -7   2  265.37   13.20
  -6  -7   2  280.17   18.70
   5   7  -2   21.00    5.90
  -5  -7   2   23.90    7.40
  -5  -7   2   19.80    6.00
  -5  -7   2   15.30    3.90
  -5  -7   2   20.60    3.70
  -5  -7   2   15.70    4.00
   4   7  -2  440.16   17.20
   4   7  -2  406.76   16.70
  -4  -7   2  441.36   12.10
  -4  -7   2  432.66   11.60
   3   7  -2  404.46   15.50
   3   7  -2  426.66   15.60
  -3  -7   2  394.86   20.00
   2   7  -2    1.30    2.90
   2   7  -2    1.40    2.80
  -2  -7   2    0.40    4.40
   1   7  -2    0.30    3.20
   1   7  -2    0.20    3.80
  -1  -7   2   12.70    6.00
   0   7  -2  518.65   25.90
   0   7  -2  570.44   16.70
   0   7  -2  583.94   17.90
   0   7  -2  555.54   19.90
   0   7  -2  546.65   13.20
   0   7  -2  603.54   23.80
   0   7  -2  569.64   14.50
   0  -7   2  558.64   24.30
  -1   7  -2  195.38   10.30
  -1   7  -2  211.38   13.70
  -1   7  -2  208.78    9.50
  -1   7  -2  233.98   11.90
  -2   7  -2  593.94   17.90
  -2   7  -2  565.24   18.10
  -2   7  -2  596.54   23.40
  -2   7  -2  583.74   18.10
  -2   7  -2  587.24   20.10
  -3   7  -2  435.56   16.50
  -3   7  -2  453.35   18.80
  -3   7  -2  449.46   20.70
  -3   7  -2  444.46   16.50
  -3   7  -2  442.56   16.90
   3  -7   2  442.46   12.30
   3  -7   2  438.86   11.70
  -4   7  -2   -1.10    2.70
  -4   7  -2   -0.40    4.90
  -4   7  -2    0.70    4.00
  -4   7  -2    3.30    3.20
   4  -7   2    9.90    3.70
   4  -7   2    4.50    2.60
  -5   7  -2   10.00    5.20
  -5   7  -2   12.40    5.70
   5  -7   2   11.80    3.80
   5  -7   2    9.00    3.90
  -6   7  -2  279.77   18.80
  -6   7  -2  306.47   16.70
   6  -7   2  268.17   13.50
   6  -7   2  270.97   16.00
  -7   7  -2  163.68   15.40
  -7   7  -2  165.58   13.60
  -8   7  -2  137.49   16.90
  -8   7  -2  161.48   14.10
   8  -7   2  141.69   12.20
   9   6  -2   63.29   11.10
  -9  -6   2   53.59    9.70
  -9  -6   2   63.59    8.90
  -9  -6   2   70.29   13.90
   8   6  -2   70.19   11.00
  -8  -6   2   73.29   10.30
  -8  -6   2   69.59   13.10
  -8  -6   2   53.89    8.40
   7   6  -2  502.05   22.80
  -7  -6   2  457.75   18.80
  -7  -6   2  474.75   22.10
  -7  -6   2  438.46   23.90
  -7  -6   2  474.35   21.10
  -7  -6   2  463.95   19.30
   6   6  -2   82.79    9.70
  -6  -6   2   66.09    8.80
  -6  -6   2   64.99    7.80
  -6  -6   2   80.49    7.50
  -6  -6   2   70.19    7.60
  -6  -6   2   67.29   10.50
   5   6  -2   94.99    9.10
  -5  -6   2   89.39    9.70
  -5  -6   2   77.59    7.60
  -5  -6   2   87.29    6.90
  -5  -6   2   76.49    7.30
   4   6  -2    3.50    3.20
   4   6  -2    4.50    3.80
  -4  -6   2    5.50    3.10
  -4  -6   2   -0.60    2.50
  -4  -6   2   -1.40    2.10
  -4  -6   2   -3.30    3.90
  -4  -6   2   -2.40    3.70
   3   6  -2  731.33   21.70
  -3  -6   2  724.93   17.60
  -3  -6   2  751.42   26.30
  -3  -6   2  729.33   17.10
  -3  -6   2  740.93   17.60
   2   6  -2  170.58   10.60
   2   6  -2  170.68    9.30
   2   6  -2  180.98    8.70
   2   6  -2  146.99   11.10
  -2  -6   2  172.78    5.40
  -2  -6   2  166.08   12.10
   1   6  -2 1254.87   30.30
   1   6  -2 1244.48   28.90
   1   6  -2 1356.06   36.90
   1   6  -2 1323.57   33.80
  -1  -6   2 1309.17   37.10
   0   6  -2  181.08   12.30
   0   6  -2  159.08   11.40
   0   6  -2  153.98   11.30
   0   6  -2  177.08    8.00
   0   6  -2  157.38    8.50
   0   6  -2  158.28    5.60
   0   6  -2  167.98    6.40
   0  -6   2  166.18   12.80
  -1   6  -2    1.40    3.40
  -1   6  -2    4.10    2.20
  -1   6  -2    1.70    2.80
  -1   6  -2    2.10    2.50
  -1   6  -2   -0.20    2.90
  -1   6  -2    7.70    4.10
  -2   6  -2    5.50    5.90
  -2   6  -2    6.30    2.70
  -2   6  -2    2.80    2.90
  -2   6  -2    3.10    4.10
  -2   6  -2    2.10    2.90
   2  -6   2   -0.20    1.50
  -3   6  -2 1110.49   32.90
  -3   6  -2 1065.59   27.70
  -3   6  -2 1009.20   34.80
  -3   6  -2 1069.39   28.00
  -3   6  -2 1079.49   28.80
   3  -6   2 1084.89   24.30
   3  -6   2 1052.89   32.00
  -4   6  -2  139.89    9.70
  -4   6  -2  160.98   12.40
  -4   6  -2  138.89    9.80
  -4   6  -2  141.29   10.50
   4  -6   2  144.39    8.50
  -5   6  -2  856.51   31.30
  -5   6  -2  840.12   27.20
   5  -6   2  846.02   24.80
   5  -6   2  866.81   24.50
  -6   6  -2   23.00    6.20
  -6   6  -2   18.30    6.50
   6  -6   2   15.80    5.20
   6  -6   2   22.10    5.00
  -7   6  -2   25.70    7.60
  -7   6  -2   24.20    6.50
   7  -6   2   31.30    6.50
  -8   6  -2    8.20    4.30
  -8   6  -2    1.30    5.60
  -8   6  -2   14.00    6.40
   8  -6   2   17.20    6.60
  -9   6  -2  168.08   15.20
  -9   6  -2  159.38    9.70
  -9   6  -2  135.49   15.50
   9  -6   2  152.38   12.90
   9   5  -2   64.89   11.30
  -9  -5   2   61.99    9.20
  -9  -5   2   63.59    9.30
  -9  -5   2   89.89   12.90
   8   5  -2   16.50    7.50
  -8  -5   2   20.60    6.20
  -8  -5   2   12.80    5.40
  -8  -5   2   21.30    7.80
   7   5  -2   59.29    9.30
  -7  -5   2   51.89    8.20
  -7  -5   2   43.50    6.70
  -7  -5   2   37.60    8.90
   6   5  -2  176.48   12.40
  -6  -5   2  190.68   14.80
  -6  -5   2  183.08   11.60
  -6  -5   2  163.78   13.30
  -6  -5   2  166.68   10.70
  -6  -5   2  166.18   12.00
   5   5  -2  620.94   22.00
  -5  -5   2  655.43   25.20
  -5  -5   2  658.53   20.80
  -5  -5   2  647.44   23.20
  -5  -5   2  640.04   20.10
  -5  -5   2  681.83   20.90
   4   5  -2    2.90    3.30
   4   5  -2    2.60    3.90
  -4  -5   2    6.10    2.50
  -4  -5   2    3.50    3.80
  -4  -5   2   -1.00    3.70
  -4  -5   2    7.30    2.90
  -4  -5   2    3.10    3.30
   3   5  -2  626.34   19.10
   3   5  -2  600.64   22.40
   3   5  -2  614.24   20.60
   3   5  -2  638.34   19.00
  -3  -5   2  590.14   17.30
  -3  -5   2  609.34   22.10
  -3  -5   2  623.74   20.60
  -3  -5   2  609.54   18.40
  -3  -5   2  635.64   15.70
   2   5  -2  192.88   11.90
   2   5  -2  201.28    9.30
   2   5  -2  197.88   10.70
   2   5  -2  184.18    9.60
  -2  -5   2  196.88   12.00
  -2  -5   2  207.08    7.50
  -2  -5   2  189.08    6.90
   1   5  -2  749.53   19.30
   1   5  -2  749.92   22.00
   1   5  -2  756.32   20.50
   1   5  -2  778.32   24.70
  -1  -5   2  771.12   15.80
  -1  -5   2  771.12   24.70
  -1  -5   2  757.12   15.70
   0   5  -2  380.26   14.20
   0   5  -2  336.97   16.00
   0   5  -2  351.96   12.10
   0   5  -2  360.56    8.70
   0   5  -2  368.26   16.50
   0   5  -2  361.16   11.60
   0  -5   2  355.56    8.30
   0  -5   2  371.06   17.00
   0  -5   2  360.76    8.30
  -1   5  -2  740.03   20.50
  -1   5  -2  776.32   24.00
  -1   5  -2  777.02   18.20
  -1   5  -2  768.82   19.30
  -1   5  -2  740.43   25.20
   1  -5   2  747.83   16.40
   1  -5   2  762.82   16.30
  -2   5  -2  132.09   11.00
  -2   5  -2  130.89    9.90
  -2   5  -2  131.39    7.50
  -2   5  -2  120.89    7.50
  -2   5  -2  118.69    7.60
   2  -5   2  124.89    6.30
   2  -5   2  121.69    9.50
   2  -5   2  120.39    6.50
  -3   5  -2  109.19    8.00
  -3   5  -2  113.09    7.60
  -3   5  -2  100.09    9.20
  -3   5  -2  119.79    9.20
   3  -5   2  111.59    7.30
   3  -5   2  107.89    9.00
   3  -5   2  120.09    7.10
  -4   5  -2  131.89   10.90
  -4   5  -2  135.39    9.50
  -4   5  -2  127.99    9.90
  -4   5  -2  128.19    9.10
   4  -5   2  117.49    7.90
   4  -5   2  115.09    9.70
   4  -5   2  125.99    8.30
  -5   5  -2  406.46   17.60
  -5   5  -2  389.46   21.50
  -5   5  -2  424.36   19.90
   5  -5   2  391.46   15.50
   5  -5   2  432.86   16.50
  -6   5  -2   89.69   10.50
  -6   5  -2  110.39   11.50
   6  -5   2  115.09    9.20
   6  -5   2   99.09    9.60
  -7   5  -2  254.57   16.00
  -7   5  -2  248.98   18.00
   7  -5   2  248.18   17.60
  -8   5  -2    4.60    5.10
  -8   5  -2    6.30    5.30
  -8   5  -2    4.20    3.10
   8  -5   2    7.00    5.20
  -9   5  -2    2.60    5.60
  -9   5  -2    5.30    3.70
  -9   5  -2   -4.00    6.10
   9  -5   2   -1.60    4.70
  -9  -4   2   32.90    6.90
  -9  -4   2   28.90    6.30
   8   4  -2  386.16   20.70
  -8  -4   2  381.56   18.40
  -8  -4   2  366.46   18.10
  -8  -4   2  361.26   22.20
   7   4  -2   -2.50    4.30
  -7  -4   2    3.50    4.30
  -7  -4   2   -1.00    3.70
  -7  -4   2    3.90    4.90
   6   4  -2  271.67   15.60
  -6  -4   2  268.07   16.20
  -6  -4   2  262.67   13.60
  -6  -4   2  258.27   13.80
  -6  -4   2  267.47   17.00
  -6  -4   2  251.57   12.90
   5   4  -2   51.69    7.10
   5   4  -2   52.89    7.00
   5   4  -2   53.49    7.20
  -5  -4   2   40.00    5.70
  -5  -4   2   47.20    6.90
  -5  -4   2   49.99    8.20
  -5  -4   2   58.09    6.10
  -5  -4   2   55.49    7.00
   4   4  -2  423.76   16.00
   4   4  -2  445.86   16.20
   4   4  -2  423.46   18.00
  -4  -4   2  429.46   18.00
  -4  -4   2  429.66   15.00
  -4  -4   2  423.66   14.30
  -4  -4   2  420.96   16.30
   3   4  -2   97.59    8.60
   3   4  -2   95.39    7.70
   3   4  -2   89.49    6.90
   3   4  -2   95.49    7.60
  -3  -4   2   96.69    5.40
  -3  -4   2   85.99    6.90
  -3  -4   2   94.79    8.60
  -3  -4   2   88.59    7.60
  -3  -4   2   92.49    6.40
   2   4  -2 1341.37   30.30
   2   4  -2 1365.06   31.00
   2   4  -2 1366.56   34.40
   2   4  -2 1385.36   32.40
  -2  -4   2 1356.46   28.40
  -2  -4   2 1376.46   26.00
  -2  -4   2 1394.16   35.00
  -2  -4   2 1320.57   29.50
   1   4  -2    8.60    3.70
   1   4  -2   12.20    4.30
   1   4  -2   15.60    3.70
   1   4  -2   13.10    2.90
  -1  -4   2   10.70    2.30
  -1  -4   2    9.10    2.60
  -1  -4   2   11.10    4.30
   0   4  -2 1232.18   22.70
   0   4  -2 1211.08   27.10
   0   4  -2 1227.48   29.00
   0   4  -2 1262.87   32.10
   0   4  -2 1193.48   31.80
   0  -4   2 1254.07   24.50
   0  -4   2 1212.08   24.40
   0  -4   2 1259.97   32.60
  -1   4  -2   -4.70    3.90
  -1   4  -2   -0.40    2.60
  -1   4  -2    1.40    3.30
  -1   4  -2   -0.60    3.30
  -1   4  -2    1.30    2.00
   1  -4   2    0.00    1.70
   1  -4   2    1.40    2.50
  -2   4  -2  938.31   23.50
  -2   4  -2  974.30   23.70
  -2   4  -2  972.60   23.50
  -2   4  -2  969.60   30.50
   2  -4   2  997.50   23.70
   2  -4   2  943.91   22.10
   2  -4   2  967.60   26.70
  -3   4  -2  278.27   12.10
  -3   4  -2  280.57   11.80
  -3   4  -2  278.67   14.00
  -3   4  -2  284.57   12.40
   3  -4   2  257.77   10.70
   3  -4   2  279.67   11.00
   3  -4   2  275.67   13.50
  -4   4  -2  867.61   24.70
  -4   4  -2  796.32   25.00
  -4   4  -2  826.72   24.60
  -4   4  -2  863.81   26.60
   4  -4   2  843.72   23.30
   4  -4   2  814.32   22.90
   4  -4   2  798.72   26.00
  -5   4  -2   14.50    4.60
  -5   4  -2   27.50    5.30
  -5   4  -2   16.40    5.00
  -5   4  -2   18.10    4.80
   5  -4   2   14.10    4.20
   5  -4   2   24.30    5.80
  -6   4  -2   60.19    9.10
  -6   4  -2   59.39    8.50
   6  -4   2   63.19    8.00
   6  -4   2   80.29   10.10
  -7   4  -2   13.30    4.00
  -7   4  -2    2.10    5.50
  -7   4  -2   14.60    5.70
   7  -4   2   13.40    6.80
  -8   4  -2  444.06   16.60
  -8   4  -2  449.66   22.50
  -8   4  -2  433.56   23.60
   8  -4   2  452.25   21.40
  -9   4  -2    1.40    3.70
   9  -4   2   -4.60    4.90
 -10   4  -2  117.39    8.90
  10  -4   2  110.79   13.80
 -10  -3   2  146.49   15.60
 -10  -3   2  150.78   11.70
 -10  -3   2  169.68   14.80
   9   3  -2   91.99   12.20
  -9  -3   2   84.19   12.60
  -9  -3   2   92.49   10.80
  -9  -3   2   74.79    9.20
   8   3  -2   11.70    5.60
  -8  -3   2    0.50    5.60
  -8  -3   2   -0.40    4.10
  -8  -3   2   -3.00    4.30
   7   3  -2   81.29    9.90
  -7  -3   2   87.99   10.80
  -7  -3   2   81.89    9.90
  -7  -3   2   71.79    8.30
   6   3  -2  969.40   30.70
   6   3  -2  989.80   28.10
  -6  -3   2  997.90   32.10
  -6  -3   2  974.20   29.50
  -6  -3   2  985.10   29.70
  -6  -3   2 1031.70   28.50
  -6  -3   2  985.50   29.20
   5   3  -2  763.32   24.40
   5   3  -2  766.32   23.50
   5   3  -2  725.33   23.60
   5   3  -2  708.93   26.00
  -5  -3   2  742.53   22.70
  -5  -3   2  769.32   23.20
  -5  -3   2  751.12   23.20
  -5  -3   2  734.73   22.50
  -5  -3   2  756.02   25.30
   4   3  -2  867.41   23.80
   4   3  -2  866.71   24.60
   4   3  -2  853.71   24.40
  -4  -3   2  865.41   23.50
  -4  -3   2  897.01   23.50
  -4  -3   2  850.01   26.00
  -4  -3   2  853.11   23.70
  -4  -3   2  894.31   24.10
   3   3  -2  538.05   17.00
   3   3  -2  542.15   16.90
   3   3  -2  525.45   18.50
   3   3  -2  520.95   16.70
  -3  -3   2  532.55   14.90
  -3  -3   2  541.75   27.60
  -3  -3   2  513.75   16.40
  -3  -3   2  571.54   17.30
  -3  -3   2  545.45   16.30
   2   3  -2   17.80    3.60
   2   3  -2   12.10    3.30
   2   3  -2    6.60    3.70
   2   3  -2   10.10    3.40
  -2  -3   2   11.60    2.20
  -2  -3   2    8.30    3.80
  -2  -3   2   16.00    3.80
  -2  -3   2    8.70    3.50
   1   3  -2  565.54   15.00
   1   3  -2  581.64   18.00
   1   3  -2  553.64   18.20
   1   3  -2  590.04   16.50
  -1  -3   2  564.44   14.90
  -1  -3   2  565.64   14.00
  -1  -3   2  581.94   17.60
   0   3  -2 3175.28   59.49
   0   3  -2 2976.10   62.89
   0   3  -2 3239.18   59.09
   0   3  -2 3186.18   54.89
   0  -3   2 3154.88   57.79
   0  -3   2 3238.48   57.89
   0  -3   2 3316.37   64.29
  -1   3  -2  854.51   21.60
  -1   3  -2  867.11   18.60
  -1   3  -2  795.92   19.90
  -1   3  -2  802.22   23.40
  -1   3  -2  868.51   22.60
   1  -3   2  809.62   19.80
   1  -3   2  798.02   18.50
   1  -3   2  806.62   21.90
  -2   3  -2 1744.63   38.70
  -2   3  -2 1666.83   36.00
  -2   3  -2 1709.13   35.90
  -2   3  -2 1750.32   36.90
   2  -3   2 1688.93   38.00
   2  -3   2 1709.43   36.30
   2  -3   2 1760.72   35.80
  -3   3  -2  676.43   24.30
  -3   3  -2  666.03   20.10
  -3   3  -2  653.03   19.20
  -3   3  -2  674.73   19.30
   3  -3   2  672.23   21.00
   3  -3   2  653.53   20.00
   3  -3   2  645.94   18.40
   3  -3   2  652.33   18.50
  -4   3  -2   25.80    5.50
  -4   3  -2   30.40    5.50
  -4   3  -2   25.30    5.60
  -4   3  -2   33.20    5.30
   4  -3   2   36.30    5.20
   4  -3   2   42.80    5.70
   4  -3   2   30.60    5.20
  -5   3  -2  276.97   14.90
  -5   3  -2  282.27   13.90
  -5   3  -2  310.37   15.60
  -5   3  -2  264.67   13.50
   5  -3   2  267.77   14.50
   5  -3   2  292.47   13.60
  -6   3  -2  842.52   23.40
  -6   3  -2  856.61   28.20
  -6   3  -2  872.91   29.60
   6  -3   2  875.21   27.50
  -7   3  -2  249.78   17.40
  -7   3  -2  255.17   15.60
  -7   3  -2  249.48   11.90
   7  -3   2  261.67   17.70
  -8   3  -2  268.87   19.90
  -8   3  -2  274.97   12.90
  -8   3  -2  288.67   17.80
   8  -3   2  315.37   18.10
  -9   3  -2   12.10    6.50
  -9   3  -2   23.10    7.30
  -9   3  -2   11.60    4.40
   9  -3   2   17.20    6.30
 -10   3  -2   39.10   10.30
 -10   3  -2   27.00    5.70
 -10   3  -2   27.00    8.80
  10  -3   2   39.70    9.70
  10   2  -2   12.70    7.60
 -10  -2   2   -3.30    4.10
 -10  -2   2   -5.10    6.20
   9   2  -2  365.66   21.40
  -9  -2   2  342.37   16.20
  -9  -2   2  332.67   19.30
  -9  -2   2  290.67   20.30
   8   2  -2   77.29   10.60
  -8  -2   2   87.09   10.40
  -8  -2   2   69.29    7.90
  -8  -2   2   77.09   10.60
   7   2  -2  243.68   15.60
   7   2  -2  230.08   12.20
  -7  -2   2  195.38   11.40
  -7  -2   2  233.98   14.60
   6   2  -2  154.28   11.50
   6   2  -2  154.58    9.30
  -6  -2   2  148.29   11.10
  -6  -2   2  142.09   12.00
  -6  -2   2  160.58   11.10
  -6  -2   2  165.18   12.30
  -6  -2   2  161.08    9.90
   5   2  -2  410.26   17.80
   5   2  -2  424.76   16.80
   5   2  -2  404.86   16.80
   5   2  -2  416.06   14.80
  -5  -2   2  435.46   17.90
  -5  -2   2  388.06   15.70
  -5  -2   2  415.36   14.80
  -5  -2   2  406.16   16.50
   4   2  -2  135.49    7.90
   4   2  -2  127.69    8.60
   4   2  -2  135.59    9.00
   4   2  -2  136.39   10.10
  -4  -2   2  135.29    8.90
  -4  -2   2  139.49    9.20
  -4  -2   2  143.19    8.80
  -4  -2   2  154.78   10.00
  -4  -2   2  144.09    7.90
   3   2  -2 5022.90   93.69
   3   2  -2 5273.67   93.09
   3   2  -2 4995.00   93.89
   3   2  -2 5186.88   95.69
  -3  -2   2 5024.20   94.89
  -3  -2   2 5023.00   92.59
  -3  -2   2 4824.52   92.89
  -3  -2   2 4961.80  101.49
  -3  -2   2 5110.09   93.19
   2   2  -2  654.23   17.60
   2   2  -2  709.23   18.00
   2   2  -2  720.23   19.30
   2   2  -2  673.33   18.10
  -2  -2   2  699.83   15.80
  -2  -2   2  668.33   17.90
  -2  -2   2  718.23   19.30
   1   2  -2 2136.49   41.20
   1   2  -2 2130.29   42.10
   1   2  -2 2133.79   42.90
  -1  -2   2 2089.39   41.70
  -1  -2   2 2135.59   42.60
  -1  -2   2 2139.09   40.60
   0   2  -2   95.59    7.00
   0   2  -2   99.99    5.50
   0   2  -2   98.39    3.30
   0   2  -2   99.89    5.80
   0  -2   2   91.99    4.90
   0  -2   2   98.49    3.30
   0  -2   2   99.99    7.10
  -1   2  -2 1134.59   24.20
  -1   2  -2 1148.99   26.00
  -1   2  -2 1112.99   23.20
  -1   2  -2 1121.89   24.70
   1  -2   2 1106.89   23.20
   1  -2   2 1131.09   24.60
   1  -2   2 1123.69   23.80
  -2   2  -2  108.49    6.50
  -2   2  -2  112.69    8.40
  -2   2  -2  103.19    6.50
  -2   2  -2  108.99    7.80
   2  -2   2  105.59    6.90
   2  -2   2  115.49    6.50
   2  -2   2  104.69    6.50
  -3   2  -2 4327.37   81.39
  -3   2  -2 4253.57   81.59
  -3   2  -2 4194.08   80.19
  -3   2  -2 4194.78   79.99
   3  -2   2 4293.07   81.69
   3  -2   2 4235.98   79.89
   3  -2   2 4136.19   80.99
   3  -2   2 4274.77   79.89
  -4   2  -2  334.17   14.80
  -4   2  -2  321.47   14.20
  -4   2  -2  336.97   13.80
  -4   2  -2  318.27   13.30
   4  -2   2  306.67   13.00
   4  -2   2  327.17   13.10
   4  -2   2  305.37   14.20
   4  -2   2  314.67   14.20
  -5   2  -2  410.76   17.60
  -5   2  -2  395.36   17.60
  -5   2  -2  395.96   16.30
  -5   2  -2  416.26   16.90
   5  -2   2  421.46   18.00
   5  -2   2  431.26   16.60
   5  -2   2  399.06   17.10
  -6   2  -2   16.80    5.30
  -6   2  -2   21.80    4.40
  -6   2  -2   23.30    6.50
   6  -2   2   20.80    6.00
  -7   2  -2  248.78   18.40
  -7   2  -2  212.48   11.10
   7  -2   2  242.18   16.80
  -8   2  -2   19.20    7.90
  -8   2  -2   28.30    5.40
  -8   2  -2   44.90    8.40
   8  -2   2   36.90    8.20
  -9   2  -2  294.37   19.80
  -9   2  -2  257.77   18.40
  -9   2  -2  230.28   12.60
   9  -2   2  259.37   17.50
 -10   2  -2   16.00    7.10
 -10   2  -2   16.90    7.10
 -10   2  -2   31.40    5.70
  10  -2   2   24.30    8.10
  10   1  -2   36.70    9.10
 -10  -1   2   34.80    9.10
 -10  -1   2   41.60    9.60
 -10  -1   2   40.70    6.10
   9   1  -2   13.00    7.50
  -9  -1   2    2.90    5.70
  -9  -1   2    7.80    4.00
  -9  -1   2   -4.60    6.40
   8   1  -2   27.90    5.50
   8   1  -2   43.80    8.60
  -8  -1   2   50.69    8.90
  -8  -1   2   30.30    5.30
  -8  -1   2   46.20    9.40
   7   1  -2  199.48   10.90
   7   1  -2  202.18   14.80
  -7  -1   2  207.98   10.80
  -7  -1   2  191.88   14.20
   6   1  -2  698.73   24.50
   6   1  -2  657.13   19.50
  -6  -1   2  678.63   24.20
  -6  -1   2  673.33   23.70
  -6  -1   2  720.13   25.30
   5   1  -2  116.59    9.20
   5   1  -2  108.49    9.00
   5   1  -2  121.39    7.30
   5   1  -2  125.29    9.30
  -5  -1   2  114.79    8.80
  -5  -1   2  120.99    8.90
  -5  -1   2  122.29    7.20
  -5  -1   2  121.69    9.10
  -5  -1   2  112.09    9.20
   4   1  -2  595.04   16.40
   4   1  -2  594.64   20.20
   4   1  -2  576.64   19.20
   4   1  -2  624.34   19.30
  -4  -1   2  563.84   18.40
  -4  -1   2  602.24   16.50
  -4  -1   2  581.34   22.30
  -4  -1   2  597.34   19.00
  -4  -1   2  596.04   19.10
   3   1  -2    3.50    3.20
   3   1  -2    0.30    3.20
   3   1  -2    1.60    2.80
  -3  -1   2    2.90    2.30
  -3  -1   2   -0.10    3.00
  -3  -1   2   -0.40    2.70
  -3  -1   2    3.10    2.90
  -3  -1   2    7.30    3.40
   2   1  -2  674.53   17.30
   2   1  -2  661.03   17.30
   2   1  -2  674.33   16.10
   2   1  -2  689.83   17.70
  -2  -1   2  653.63   19.00
  -2  -1   2  675.73   17.20
  -2  -1   2  657.03   17.20
   1   1  -2 1375.86   28.10
   1   1  -2 1373.66   28.00
   1   1  -2 1382.96   28.40
  -1  -1   2 1362.96   27.80
  -1  -1   2 1359.96   28.40
  -1  -1   2 1351.06   27.80
   0   1  -2 1880.01   34.10
   0   1  -2 1751.72   36.10
   0   1  -2 1897.41   36.10
   0   1  -2 1898.41   36.80
   0  -1   2 1867.81   36.40
   0  -1   2 1804.92   35.80
   0  -1   2 1867.51   35.80
   0  -1   2 1883.61   33.90
  -1   1  -2  379.76   10.90
  -1   1  -2  390.56   11.10
  -1   1  -2  378.66   10.60
  -1   1  -2  374.96   11.10
   1  -1   2  393.26   10.80
   1  -1   2  380.06   11.10
   1  -1   2  392.56   11.00
   1  -1   2  403.36   10.80
  -2   1  -2  137.49    7.30
  -2   1  -2  135.29    7.10
  -2   1  -2  133.09    7.10
  -2   1  -2  136.69    7.20
   2  -1   2  128.69    6.90
   2  -1   2  129.49    7.10
   2  -1   2  138.39    8.60
  -3   1  -2  251.37   10.50
  -3   1  -2  228.48   10.80
  -3   1  -2  228.48   10.80
  -3   1  -2  238.48   10.30
   3  -1   2  238.88   11.00
   3  -1   2  237.78   10.50
   3  -1   2  240.38   10.20
   3  -1   2  225.48   10.40
  -4   1  -2  335.17   13.60
  -4   1  -2  340.37   22.20
  -4   1  -2  302.77   13.10
  -4   1  -2  316.97   14.30
   4  -1   2  310.27   12.90
   4  -1   2  337.57   14.50
   4  -1   2  336.67   13.50
   4  -1   2  332.67   14.00
  -5   1  -2  978.30   29.30
  -5   1  -2  999.50   25.00
  -5   1  -2  987.30   27.70
  -5   1  -2  939.51   27.20
  -5   1  -2 1008.30   29.10
   5  -1   2  937.01   27.10
   5  -1   2 1001.30   29.70
   5  -1   2  961.70   31.10
  -6   1  -2  693.13   23.70
  -6   1  -2  681.83   20.50
  -6   1  -2  686.13   25.00
   6  -1   2  666.03   25.20
   6  -1   2  668.53   23.50
  -7   1  -2   40.40    5.70
  -7   1  -2   30.40    7.10
  -7   1  -2   26.40    8.00
   7  -1   2   23.00    7.70
   7  -1   2   31.30    6.80
  -8   1  -2   28.50    7.20
  -8   1  -2    9.20    5.40
  -8   1  -2   12.80    4.60
   8  -1   2   17.90    6.20
  -9   1  -2   17.30    4.90
  -9   1  -2   21.50    7.30
  -9   1  -2    7.80    6.40
   9  -1   2   19.60    6.60
 -10   1  -2   53.89    6.90
 -10   1  -2   72.99   11.30
 -10   1  -2   55.69   11.20
  10  -1   2   35.00    9.50
  10   0  -2  215.98   18.10
 -10   0   2  199.58   11.10
 -10   0   2  197.98   16.60
 -10   0   2  204.28   17.60
   9   0  -2   -5.60    4.40
  -9   0   2    6.00    3.20
  -9   0   2   -1.30    4.80
  -9   0   2   -9.60    5.10
   8   0  -2 1296.97   40.10
  -8   0   2 1236.48   39.90
  -8   0   2 1257.77   39.50
  -8   0   2 1292.97   31.60
   7   0  -2    2.20    3.00
  -7   0   2    2.70    3.20
  -7   0   2   10.60    5.50
   6   0  -2  107.89    9.70
   6   0  -2  101.19    7.00
  -6   0   2  105.89   10.40
  -6   0   2   95.09    9.40
  -6   0   2  105.99   10.20
  -6   0   2  103.09    6.70
   5   0  -2    1.50    2.00
   5   0  -2   -0.60    2.90
   5   0  -2    3.30    3.10
   5   0  -2    6.30    3.60
  -5   0   2   -3.70    3.00
  -5   0   2    3.40    3.50
  -5   0   2   -0.60    2.70
  -5   0   2    1.80    3.40
  -5   0   2    0.90    2.00
   4   0  -2 1596.54   32.20
   4   0  -2 1613.94   37.30
   4   0  -2 1601.84   38.20
   4   0  -2 1616.54   37.20
  -4   0   2 1646.44   38.60
  -4   0   2 1583.04   37.40
  -4   0   2 1607.94   37.10
  -4   0   2 1494.75   31.90
  -4   0   2 1581.64   36.70
   3   0  -2    7.00    3.50
   3   0  -2    9.50    3.50
   3   0  -2    8.10    2.10
   3   0  -2   11.30    3.80
  -3   0   2    5.20    2.10
  -3   0   2    1.50    3.00
  -3   0   2    9.00    3.50
   2   0  -2 2758.22   55.39
   2   0  -2 2590.14   54.19
   2   0  -2 2727.33   51.69
   2   0  -2 2733.13   48.70
  -2   0   2 2653.63   50.49
  -2   0   2 2768.72   51.99
  -2   0   2 2638.14   54.19
   1   0  -2    4.10    2.40
   1   0  -2    3.30    1.50
   1   0  -2    0.50    2.30
  -1   0   2    1.50    1.70
  -1   0   2    2.30    2.30
  -1   0   2    0.20    2.30
   0   0  -2  925.81   20.60
   0   0  -2  939.41   18.60
   0   0  -2  984.00   20.50
   0   0  -2  971.70   20.70
   0   0   2  955.10   20.80
   0   0   2  946.11   20.10
   0   0   2  977.30   20.70
  -1   0  -2    1.50    2.60
  -1   0  -2    3.80    2.30
  -1   0  -2    1.90    2.20
  -1   0  -2    0.40    1.60
   1   0   2    2.00    2.20
   1   0   2   -1.60    2.00
   1   0   2    1.00    1.60
   1   0   2   -1.90    2.00
  -2   0  -2 3904.71   72.09
  -2   0  -2 3940.61   73.39
  -2   0  -2 3974.50   72.39
  -2   0  -2 3887.71   72.19
   2   0   2 3896.71   72.69
   2   0   2 4059.99   72.59
   2   0   2 3958.80   71.99
   2   0   2 4027.50   73.59
  -3   0  -2    1.40    2.80
  -3   0  -2    3.40    2.90
  -3   0  -2    2.20    3.10
  -3   0  -2   -0.30    2.90
  -3   0  -2   -2.40    2.80
   3   0   2   -1.00    2.50
   3   0   2    2.00    3.00
   3   0   2    0.10    2.90
   3   0   2    2.40    3.10
  -4   0  -2 1736.43   40.50
  -4   0  -2 1719.43   37.20
  -4   0  -2 1694.23   38.70
  -4   0  -2 1742.73   39.80
   4   0   2 1644.84   38.30
   4   0   2 1763.22   39.60
   4   0   2 1831.92   46.00
  -5   0  -2   -4.10    4.40
  -5   0  -2    3.40    3.60
  -5   0  -2    4.50    4.00
  -5   0  -2    2.90    2.90
   5   0   2    7.90    4.00
   5   0   2    2.10    3.70
   5   0   2    2.80    3.30
  -6   0  -2   58.19    6.10
  -6   0  -2   54.49    7.70
  -6   0  -2   54.39    8.40
  -6   0  -2   57.99    8.00
   6   0   2   47.90    8.20
   6   0   2   44.20    6.60
   6   0   2   50.89    7.50
  -7   0  -2   -4.00    2.90
  -7   0  -2    3.80    5.20
  -7   0  -2    0.60    4.40
   7   0   2   -0.50    5.30
   7   0   2   16.20    5.10
  -8   0  -2 1653.83   45.80
  -8   0  -2 1617.24   47.60
  -8   0  -2 1555.74   39.80
   8   0   2 1589.84   45.50
   8   0   2 1633.74   48.70
  -9   0  -2   10.20    5.60
  -9   0  -2    1.10    5.90
   9   0   2    7.80    5.20
 -10   0  -2  215.98   19.50
 -10   0  -2  185.98   12.30
  10   0   2  209.68   16.80
  10  -1  -2   25.90    8.00
 -10   1   2   24.80    7.30
 -10   1   2   24.10    4.10
 -10   1   2   22.40   10.10
   9  -1  -2   -8.40    5.50
  -9   1   2   28.30    8.10
  -9   1   2    5.60    3.20
  -9   1   2   16.10    6.40
   8  -1  -2   96.89   11.00
  -8   1   2  116.69   13.10
  -8   1   2  141.29   13.30
  -8   1   2  116.09    7.60
  -7   1   2   58.89    5.30
  -7   1   2   63.89   10.40
   6  -1  -2  977.80   29.80
  -6   1   2  981.20   30.00
  -6   1   2  980.20   22.70
  -6   1   2 1012.60   31.90
   5  -1  -2  119.89    5.80
   5  -1  -2  114.49    9.40
   5  -1  -2  116.39    9.30
   5  -1  -2  114.29    9.30
  -5   1   2  125.79   11.80
  -5   1   2  118.69    9.20
  -5   1   2  121.19   10.10
  -5   1   2  100.49    8.20
  -5   1   2  114.69    5.60
   4  -1  -2  222.78   10.80
   4  -1  -2  220.58    7.10
   4  -1  -2  238.18   12.00
   4  -1  -2  230.38   11.10
  -4   1   2  235.78   12.50
  -4   1   2  228.78    7.00
  -4   1   2  225.58   11.20
  -4   1   2  204.98   11.30
  -4   1   2  217.38   10.80
   3  -1  -2   -0.30    2.90
   3  -1  -2    3.70    1.50
   3  -1  -2    3.50    3.30
   3  -1  -2    2.20    3.00
  -3   1   2    3.20    3.10
  -3   1   2    6.30    3.30
  -3   1   2    2.80    1.40
  -3   1   2    6.90    3.40
   2  -1  -2 1511.15   31.50
   2  -1  -2 1510.35   31.60
   2  -1  -2 1503.55   26.90
   2  -1  -2 1509.65   31.30
  -2   1   2 1454.55   31.20
  -2   1   2 1534.15   31.50
   1  -1  -2  691.53   15.20
   1  -1  -2  685.43   15.60
  -1   1   2  689.63   15.80
  -1   1   2  681.83   15.90
  -1   1   2  693.23   15.30
   0  -1  -2 1497.85   28.30
   0  -1  -2 1497.05   28.50
   0  -1  -2 1432.96   30.40
   0   1   2 1537.85   30.90
   0   1   2 1504.75   28.70
   0   1   2 1489.95   28.70
  -1  -1  -2   85.89    4.00
  -1  -1  -2   91.29    5.10
  -1  -1  -2   97.79    5.80
  -1  -1  -2   85.49    4.30
  -1  -1  -2   82.59    4.40
   1   1   2   87.99    3.70
   1   1   2   87.59    4.70
   1   1   2  100.29    5.80
   1   1   2   89.79    4.60
  -2  -1  -2   66.09    5.00
  -2  -1  -2   62.49    7.00
  -2  -1  -2   72.79    4.90
  -2  -1  -2   73.49    5.20
  -2  -1  -2   69.89    5.30
   2   1   2   64.29    4.60
   2   1   2   67.79    5.10
   2   1   2   65.89    5.00
   2   1   2   65.49    5.90
  -3  -1  -2  449.86   14.00
  -3  -1  -2  470.75   14.30
  -3  -1  -2  477.55   14.20
  -3  -1  -2  455.55   14.40
  -3  -1  -2  480.15   15.90
   3   1   2  478.45   14.40
   3   1   2  477.75   16.00
   3   1   2  485.75   14.60
   3   1   2  471.55   14.50
  -4  -1  -2  451.45   14.50
  -4  -1  -2  417.96   15.10
  -4  -1  -2  409.26   15.30
  -4  -1  -2  394.26   14.40
  -4  -1  -2  420.26   16.10
   4   1   2  412.86   17.30
   4   1   2  408.16   14.90
   4   1   2  469.85   26.20
   4   1   2  426.36   15.20
  -5  -1  -2  764.12   23.90
  -5  -1  -2  734.23   21.40
  -5  -1  -2  716.33   22.30
  -5  -1  -2  763.22   23.10
  -5  -1  -2  758.92   35.90
   5   1   2  769.12   25.00
   5   1   2  777.62   23.60
   5   1   2  749.82   23.40
  -6  -1  -2  337.37   15.50
  -6  -1  -2  320.97   15.00
  -6  -1  -2  346.77   17.00
  -6  -1  -2  360.26   14.60
   6   1   2  338.87   16.00
   6   1   2  355.26   17.40
   6   1   2  309.27   15.50
  -7  -1  -2   30.60    7.60
  -7  -1  -2   49.60    6.60
  -7  -1  -2   55.89    8.10
   7   1   2   44.50    8.30
   7   1   2   32.60    6.90
  -8  -1  -2   -0.20    4.80
  -8  -1  -2   -0.40    4.90
  -8  -1  -2    3.20    4.20
   8   1   2    5.40    4.90
   8   1   2    0.50    4.50
  -9  -1  -2   27.00    7.20
  -9  -1  -2   23.60    6.50
  -9  -1  -2   19.60    4.50
   9   1   2   19.80    7.50
 -10  -1  -2   69.49   10.90
 -10  -1  -2   58.29   11.30
 -10  -1  -2   67.39    8.50
 -10  -1  -2   64.59   10.80
  10   1   2   54.59   10.50
  10  -2  -2    5.00    7.10
 -10   2   2    5.50    6.80
 -10   2   2    9.50    6.10
   9  -2  -2  250.87   18.20
  -9   2   2  252.87   19.10
  -9   2   2  245.28   18.10
  -9   2   2  256.97    9.80
   8  -2  -2   62.09    9.50
  -8   2   2   64.99   10.60
  -8   2   2   67.19    5.20
  -8   2   2   77.79   10.20
   7  -2  -2   -3.40    4.50
  -7   2   2    1.30    2.00
  -7   2   2   -3.60    3.80
  -7   2   2    3.00    4.60
   6  -2  -2   25.40    6.10
  -6   2   2   27.10    3.10
  -6   2   2   32.90    6.50
  -6   2   2   42.40    7.50
   5  -2  -2 1424.56   35.10
   5  -2  -2 1350.66   36.30
  -5   2   2 1400.66   37.10
  -5   2   2 1373.56   36.90
  -5   2   2 1387.16   35.30
  -5   2   2 1387.46   35.50
  -5   2   2 1382.46   26.60
   4  -2  -2  151.98    9.10
   4  -2  -2  156.68    9.50
   4  -2  -2  160.78   10.00
  -4   2   2  161.58    9.70
  -4   2   2  168.88    9.80
  -4   2   2  158.68   10.40
  -4   2   2  155.78    5.10
   3  -2  -2 3294.07   64.09
   3  -2  -2 3392.16   65.59
   3  -2  -2 3262.57   63.79
  -3   2   2 3377.86   65.79
  -3   2   2 3378.36   64.69
  -3   2   2 3348.96   64.79
   2  -2  -2  141.19    7.10
   2  -2  -2  143.89    6.80
   2  -2  -2  134.99    6.80
  -2   2   2  142.89    7.60
  -2   2   2  139.29    6.70
   1  -2  -2  468.75   11.20
   1  -2  -2  455.25   11.50
   1  -2  -2  472.95   11.70
   1  -2  -2  490.35   10.70
  -1   2   2  473.65   11.50
  -1   2   2  459.25   11.40
  -1   2   2  485.65   11.90
   0  -2  -2   86.89    3.10
   0  -2  -2   77.49    4.50
   0  -2  -2   83.09    3.60
   0  -2  -2   89.39    2.90
   0  -2  -2   81.49    3.90
   0   2   2   86.39    3.90
   0   2   2   84.19    3.70
   0   2   2   86.19    3.60
   0   2   2   83.09    4.20
   0   2   2   88.79    2.90
   0   2   2   89.29    6.50
  -1  -2  -2 5485.25   97.59
  -1  -2  -2 5321.57   93.59
  -2  -2  -2  102.19    8.00
  -2  -2  -2   99.69    6.30
  -2  -2  -2  107.89    5.50
  -2  -2  -2  104.49    5.20
  -2  -2  -2  104.89    5.70
  -2  -2  -2  116.49    6.60
   2   2   2  118.99    6.70
   2   2   2  102.79    5.90
   2   2   2  116.69    7.20
   2   2   2  105.59    5.90
   2   2   2  106.19    5.70
  -3  -2  -2 2611.54   52.89
  -3  -2  -2 2763.42   55.29
  -3  -2  -2 2754.32   53.79
  -3  -2  -2 2601.34   52.09
  -3  -2  -2 2714.23   52.39
   3   2   2 2648.24   52.99
   3   2   2 2758.42   53.19
   3   2   2 2734.63   53.59
   3   2   2 2759.12   55.29
   3   2   2 2705.83   52.99
  -4  -2  -2  598.24   18.80
  -4  -2  -2  589.54   18.10
  -4  -2  -2  605.04   17.90
  -4  -2  -2  604.84   18.90
  -4  -2  -2  593.94   19.80
   4   2   2  604.14   18.60
   4   2   2  578.74   18.60
   4   2   2  598.74   18.20
   4   2   2  589.74   18.40
  -5  -2  -2   45.80    5.70
  -5  -2  -2   50.19    6.60
  -5  -2  -2   43.20    6.00
  -5  -2  -2   43.70    5.70
   5   2   2   44.30    6.40
   5   2   2   49.30    5.80
   5   2   2   32.80    6.30
   5   2   2   43.70    5.80
  -6  -2  -2   12.30    4.70
  -6  -2  -2   10.10    3.80
  -6  -2  -2    5.50    4.30
  -6  -2  -2   11.90    4.80
  -6  -2  -2    9.00    3.90
   6   2   2   11.90    4.90
   6   2   2   13.10    4.80
   6   2   2    8.80    3.80
  -7  -2  -2  623.34   23.60
  -7  -2  -2  603.84   24.70
  -7  -2  -2  623.44   21.90
   7   2   2  617.14   24.10
   7   2   2  648.54   26.10
  -8  -2  -2   81.49   11.30
  -8  -2  -2   98.29   11.50
  -8  -2  -2  115.29   12.00
  -8  -2  -2   79.39    9.10
   8   2   2   80.99   11.20
   8   2   2   89.49   11.60
  -9  -2  -2  185.48   15.00
  -9  -2  -2  135.59   14.30
  -9  -2  -2  151.08   11.90
   9   2   2  153.38   14.50
   9   2   2  141.39   16.10
 -10  -2  -2   37.40    7.20
 -10  -2  -2   16.10    7.40
  10   2   2   41.20    8.90
  10  -3  -2   13.20    6.30
 -10   3   2    2.30    5.30
 -10   3   2   11.70    7.60
   9  -3  -2   31.50    7.80
  -9   3   2   57.09    9.70
  -9   3   2   36.60   10.30
   8  -3  -2  447.56   21.30
  -8   3   2  443.06   11.10
  -8   3   2  468.35   21.80
  -8   3   2  424.16   23.50
   7  -3  -2  303.27   16.60
  -7   3   2  298.47   17.90
  -7   3   2  279.07    7.80
  -7   3   2  273.17   16.30
   6  -3  -2 1058.49   30.70
   6  -3  -2 1083.39   31.60
  -6   3   2 1066.59   20.60
  -6   3   2 1109.59   34.00
  -6   3   2 1095.29   32.40
   5  -3  -2   81.39    8.30
   5  -3  -2  102.19    8.30
   5  -3  -2  115.19    8.60
  -5   3   2  105.19    9.20
  -5   3   2  100.39    8.10
  -5   3   2  116.09   10.00
  -5   3   2  100.69    8.70
   4  -3  -2   57.99    6.20
   4  -3  -2   44.50    6.30
  -4   3   2   47.50    5.70
  -4   3   2   52.69    6.80
  -4   3   2   49.80    6.30
   3  -3  -2  704.63   20.10
   3  -3  -2  655.33   17.90
   3  -3  -2  684.53   18.60
  -3   3   2  725.03   20.50
  -3   3   2  692.23   19.10
  -3   3   2  677.43   19.10
   2  -3  -2 2163.78   40.50
   2  -3  -2 2167.28   43.60
   2  -3  -2 2085.49   40.60
  -2   3   2 2149.88   42.90
  -2   3   2 2037.50   41.30
  -2   3   2 2128.09   37.00
   1  -3  -2 1533.65   29.40
   1  -3  -2 1601.24   29.00
   1  -3  -2 1659.13   32.00
   1  -3  -2 1637.94   30.30
  -1   3   2 1639.04   30.20
  -1   3   2 1626.74   30.80
  -1   3   2 1602.74   32.90
  -1   3   2 1603.94   31.80
  -1   3   2 1610.94   30.50
   0  -3  -2 4221.38   82.39
   0  -3  -2 4567.04   81.79
   0   3   2 4625.54   78.39
   0   3   2 4814.82   82.19
   0   3   2 4548.35   80.09
   0   3   2 4672.53   81.69
   0   3   2 4702.33   85.79
   0   3   2 4636.84   78.39
  -1  -3  -2  628.54   16.20
  -1  -3  -2  620.54   16.30
  -1  -3  -2  618.14   18.10
   1   3   2  628.94   13.30
   1   3   2  625.04   17.50
   1   3   2  644.44   16.10
   1   3   2  634.24   18.10
   1   3   2  622.64   12.90
  -2  -3  -2   81.19    6.50
  -2  -3  -2   73.09    6.30
  -2  -3  -2   81.99    6.30
  -2  -3  -2   78.69    4.00
  -2  -3  -2   73.39    4.10
   2   3   2   79.19    5.20
   2   3   2   75.19    4.60
   2   3   2   79.59    6.10
   2   3   2   85.39    6.70
   2   3   2   75.19    4.80
   2   3   2   79.59    6.20
  -3  -3  -2 1258.17   30.90
  -3  -3  -2 1238.38   27.30
  -3  -3  -2 1327.77   27.50
  -3  -3  -2 1344.27   30.70
  -3  -3  -2 1275.67   31.20
   3   3   2 1280.27   31.10
   3   3   2 1311.27   30.20
   3   3   2 1256.77   28.70
   3   3   2 1244.28   28.30
   3   3   2 1280.07   29.10
  -4  -3  -2 1497.55   36.90
  -4  -3  -2 1417.86   32.30
  -4  -3  -2 1429.46   34.40
  -4  -3  -2 1412.56   35.40
  -4  -3  -2 1416.76   32.30
   4   3   2 1453.65   34.40
   4   3   2 1467.55   34.60
   4   3   2 1511.25   37.30
   4   3   2 1451.95   33.70
   4   3   2 1387.76   33.20
  -5  -3  -2 1647.44   37.30
  -5  -3  -2 1580.24   36.70
  -5  -3  -2 1472.65   52.79
  -5  -3  -2 1582.64   41.00
  -5  -3  -2 1643.04   38.40
   5   3   2 1638.74   40.60
   5   3   2 1622.04   38.60
   5   3   2 1463.75   41.60
   5   3   2 1559.54   38.70
  -6  -3  -2  619.34   26.80
  -6  -3  -2  637.64   21.60
  -6  -3  -2  591.04   20.40
  -6  -3  -2  598.14   23.80
  -6  -3  -2  603.44   21.00
   6   3   2  596.54   23.30
   6   3   2  603.14   22.40
   6   3   2  602.74   21.40
   6   3   2  609.24   22.00
  -7  -3  -2   36.50    7.10
  -7  -3  -2   34.10    6.30
  -7  -3  -2   29.60    7.30
   7   3   2   27.80    6.70
   7   3   2   29.30    7.50
  -8  -3  -2   61.29    8.60
  -8  -3  -2   50.09    9.10
   8   3   2   48.50    9.30
   8   3   2   69.49   10.00
  -9  -3  -2   99.69   12.60
  -9  -3  -2  110.49   10.40
  -9  -3  -2  106.29   13.90
   9   3   2   96.79   12.40
   9   3   2  132.79   13.10
 -10  -3  -2  199.98   14.40
 -10  -3  -2  204.98   18.20
  10   3   2  219.98   18.30
  10  -4  -2  125.19   14.30
   9  -4  -2    1.10    4.90
  -9   4   2   -4.80    4.50
  -9   4   2   -4.90    5.20
   8  -4  -2  131.99   11.70
  -8   4   2  128.49   13.60
  -8   4   2  145.39   13.20
   7  -4  -2   20.70    6.40
  -7   4   2   29.10    6.90
  -7   4   2   28.50    7.10
   6  -4  -2  374.66   16.10
   6  -4  -2  359.36   16.20
  -6   4   2  356.26   17.20
  -6   4   2  392.66   19.30
   5  -4  -2    9.30    4.10
   5  -4  -2   18.90    5.10
   5  -4  -2   20.30    4.60
  -5   4   2   22.50    5.10
  -5   4   2   18.60    4.30
  -5   4   2   17.00    4.90
   4  -4  -2 1528.75   37.90
   4  -4  -2 1522.05   34.50
   4  -4  -2 1511.65   34.60
  -4   4   2 1593.04   36.80
  -4   4   2 1488.75   35.60
  -4   4   2 1557.04   38.10
   3  -4  -2   76.09    6.90
   3  -4  -2   77.09    6.60
   3  -4  -2   76.89    5.70
  -3   4   2   76.39    2.90
  -3   4   2   74.49    5.90
  -3   4   2   80.39    7.50
  -3   4   2   78.19    6.20
   2  -4  -2  162.58    5.90
   2  -4  -2  163.58    6.10
   2  -4  -2  159.88    8.30
  -2   4   2  162.28    5.50
  -2   4   2  154.38    6.90
  -2   4   2  171.68    9.20
   1  -4  -2   77.09    5.30
   1  -4  -2   87.39    5.00
  -1   4   2   86.59    5.80
  -1   4   2   82.39    4.00
  -1   4   2   88.29    4.70
  -1   4   2   85.39    4.00
  -1   4   2   86.29    6.60
   0  -4  -2 3448.85   63.39
   0  -4  -2 3158.48   65.09
   0   4   2 3439.56   63.99
   0   4   2 3501.35   67.29
   0   4   2 3487.55   62.49
  -1  -4  -2  243.58   10.10
  -1  -4  -2  236.68   11.00
  -1  -4  -2  236.08    9.80
   1   4   2  256.97    9.90
   1   4   2  243.78    5.60
   1   4   2  235.28    5.90
   1   4   2  254.77   10.10
   1   4   2  252.87   11.10
  -2  -4  -2 2246.08   47.20
  -2  -4  -2 2185.58   47.40
  -2  -4  -2 2276.97   46.50
   2   4   2 2289.27   46.60
   2   4   2 2226.88   42.00
   2   4   2 2245.18   46.80
   2   4   2 2247.68   42.20
   2   4   2 2229.48   46.60
  -3  -4  -2    6.40    4.30
  -3  -4  -2    8.30    2.40
  -3  -4  -2    2.10    2.20
  -3  -4  -2    1.00    3.00
   3   4   2    4.00    2.90
   3   4   2    3.00    3.40
   3   4   2    5.70    3.40
   3   4   2    6.00    4.10
   3   4   2    3.00    2.70
  -4  -4  -2   99.99    8.00
  -4  -4  -2   97.39    9.00
  -4  -4  -2   90.89    6.30
  -4  -4  -2   85.39    5.90
  -4  -4  -2   84.89    7.70
   4   4   2   97.89    7.00
   4   4   2  104.59    8.20
   4   4   2   97.99    8.40
   4   4   2  100.99    8.30
   4   4   2  102.89    7.50
  -5  -4  -2   90.89    9.90
  -5  -4  -2  100.69    7.70
  -5  -4  -2  101.09    7.30
  -5  -4  -2   99.69    8.50
   5   4   2   96.29    8.20
   5   4   2   96.79    8.30
   5   4   2   89.19    8.00
   5   4   2  100.49    8.40
   5   4   2  112.09    9.70
  -6  -4  -2  685.53   22.10
  -6  -4  -2  673.23   23.10
  -6  -4  -2  673.53   22.00
  -6  -4  -2  659.73   25.90
   6   4   2  669.23   25.30
   6   4   2  698.03   24.10
   6   4   2  665.13   24.90
  -7  -4  -2   13.60    5.40
  -7  -4  -2    5.80    4.80
  -7  -4  -2    2.30    3.80
  -7  -4  -2   -0.40    4.50
   7   4   2    1.30    4.30
   7   4   2   -1.30    4.10
  -8  -4  -2  534.25   22.30
  -8  -4  -2  503.25   22.00
  -8  -4  -2  541.95   26.20
   8   4   2  494.25   24.10
   8   4   2  508.95   23.50
  -9  -4  -2    2.50    4.30
  -9  -4  -2   -2.60    4.70
  -9  -4  -2   -5.20    5.20
   9   4   2   -2.30    4.80
   9   4   2   -6.20    5.20
 -10  -4  -2  -12.20    5.40
 -10  -4  -2    4.70    6.40
 -10  -4  -2    0.50    5.10
  10   4   2   -3.50    5.60
   9  -5  -2   59.29    9.50
  -9   5   2   65.19   11.00
  -9   5   2   72.09   12.80
   8  -5  -2   64.69    8.70
  -8   5   2   52.19    9.10
  -8   5   2   53.79   10.20
   7  -5  -2  293.97   15.90
  -7   5   2  275.97   17.60
  -7   5   2  263.87   17.90
   6  -5  -2   31.90    6.10
   6  -5  -2   34.70    6.20
  -6   5   2   36.60    7.30
  -6   5   2   44.70    8.40
   5  -5  -2   78.49    7.40
   5  -5  -2   79.19    7.60
  -5   5   2   75.79    8.00
  -5   5   2   77.39    8.10
  -5   5   2   80.29   10.10
   4  -5  -2    8.80    3.10
   4  -5  -2    5.30    3.10
  -4   5   2    9.60    4.00
  -4   5   2    4.20    1.10
  -4   5   2   11.80    4.50
  -4   5   2    6.60    3.20
   3  -5  -2 1080.39   23.70
   3  -5  -2 1077.79   24.00
   3  -5  -2 1070.29   28.70
  -3   5   2 1158.38   29.60
  -3   5   2 1115.19   26.60
  -3   5   2 1083.49   26.30
  -3   5   2 1123.59   22.20
   2  -5  -2  229.58   10.40
  -2   5   2  219.38   11.40
  -2   5   2  225.48    7.70
  -2   5   2  227.18    8.60
  -2   5   2  223.08   10.70
   1  -5  -2 1186.68   26.50
   1  -5  -2 1218.28   28.40
  -1   5   2 1227.88   23.30
  -1   5   2 1256.67   29.90
  -1   5   2 1183.98   28.00
  -1   5   2 1190.98   23.30
  -1   5   2 1232.18   26.90
   0  -5  -2   22.80    3.80
   0  -5  -2   24.90    5.80
   0   5   2   31.50    4.40
   0   5   2   26.20    3.70
   0   5   2   31.10    4.00
   0   5   2   21.20    4.40
  -1  -5  -2  174.08   10.70
  -1  -5  -2  163.68    8.90
   1   5   2  179.48    9.00
   1   5   2  194.38   10.70
   1   5   2  188.58    9.60
  -2  -5  -2   26.90    4.50
  -2  -5  -2   22.40    4.70
  -2  -5  -2   22.90    4.60
   2   5   2   24.90    5.00
   2   5   2   19.80    3.80
   2   5   2   17.70    4.00
   2   5   2   17.50    2.70
   2   5   2   19.60    2.50
  -3  -5  -2 1093.19   28.60
  -3  -5  -2 1072.19   28.80
  -3  -5  -2 1120.19   30.10
   3   5   2 1037.80   24.20
   3   5   2 1037.00   24.50
   3   5   2 1054.59   28.20
   3   5   2 1062.79   27.90
   3   5   2 1067.59   29.20
  -4  -5  -2   19.30    3.10
  -4  -5  -2   16.90    4.90
  -4  -5  -2   23.40    3.20
  -4  -5  -2    9.00    3.50
  -4  -5  -2   13.20    3.80
   4   5   2   16.40    3.60
   4   5   2   19.60    3.90
   4   5   2   14.10    4.40
   4   5   2   18.00    4.30
   4   5   2   20.10    4.50
  -5  -5  -2 1057.49   25.80
  -5  -5  -2 1080.19   31.20
  -5  -5  -2 1068.29   26.20
  -5  -5  -2 1120.79   31.40
  -5  -5  -2 1119.09   33.60
   5   5   2 1052.29   28.80
   5   5   2 1065.59   30.70
   5   5   2 1049.30   29.00
   5   5   2 1117.29   31.80
  -6  -5  -2    3.10    3.30
  -6  -5  -2    4.80    3.20
  -6  -5  -2    3.80    4.10
  -6  -5  -2   -1.90    4.20
   6   5   2    1.80    3.50
   6   5   2   -1.70    3.50
  -7  -5  -2   -1.10    4.80
  -7  -5  -2   -3.30    4.00
  -7  -5  -2   -1.00    4.00
  -7  -5  -2    5.60    3.40
   7   5   2   -5.20    4.70
  -8  -5  -2   13.90    4.70
  -8  -5  -2   14.40    7.10
  -8  -5  -2    8.20    5.00
   8   5   2   10.30    6.50
   8   5   2    3.70    5.00
  -9  -5  -2  189.88   14.00
  -9  -5  -2  206.48   18.60
  -9  -5  -2  195.38   15.10
   9   5   2  223.68   16.00
   9   5   2  223.88   17.70
  10   5   2   10.20    6.50
  10   5   2    4.70    6.90
   9  -6  -2  194.68   14.40
  -9   6   2  206.98   19.60
  -9   6   2  207.38   16.70
   8  -6  -2    0.10    5.20
  -8   6   2    5.80    5.40
  -8   6   2   17.50    6.80
   7  -6  -2  103.99   10.00
  -7   6   2  101.69   12.10
  -7   6   2  108.29   10.90
   6  -6  -2  122.79    9.40
  -6   6   2  128.39   10.90
  -6   6   2  126.69   14.50
   5  -6  -2 1340.07   32.10
   5  -6  -2 1315.77   32.00
  -5   6   2 1368.46   36.10
  -5   6   2 1386.06   39.00
  -5   6   2 1279.77   39.60
  -5   6   2 1335.27   24.70
   4  -6  -2  422.26   17.70
   4  -6  -2  446.16   13.40
   4  -6  -2  404.56   13.10
  -4   6   2  422.96   11.00
  -4   6   2  418.96   15.90
  -4   6   2  415.06   15.70
  -4   6   2  418.06   18.10
   3  -6  -2 1320.07   25.40
   3  -6  -2 1324.57   25.10
   3  -6  -2 1322.77   34.00
  -3   6   2 1341.17   27.70
  -3   6   2 1291.37   30.30
  -3   6   2 1369.16   34.60
  -3   6   2 1350.16   30.80
  -3   6   2 1272.97   36.00
   2  -6  -2   -2.30    2.70
  -2   6   2    7.60    2.50
  -2   6   2    6.80    4.20
  -2   6   2    6.90    2.70
  -2   6   2    4.50    3.60
  -2   6   2    5.90    2.50
   1  -6  -2  113.59    8.50
   1  -6  -2  100.19    6.90
  -1   6   2  111.19    8.30
  -1   6   2  101.19    7.70
  -1   6   2  106.19    4.20
  -1   6   2  102.19    4.10
  -1   6   2  107.69    6.60
   0  -6  -2  521.15   16.50
   0  -6  -2  494.65   19.20
   0   6   2  509.15   16.00
   0   6   2  518.55   17.30
   0   6   2  553.44   19.20
   0   6   2  517.35   16.10
  -1  -6  -2 3277.37   65.89
   1   6   2 3305.07   67.69
   1   6   2 3413.46   66.59
   1   6   2 3275.97   64.99
   1   6   2 3232.48   66.99
  -2  -6  -2  609.04   20.80
  -2  -6  -2  653.43   22.10
  -2  -6  -2  634.14   20.30
   2   6   2  609.14   19.90
   2   6   2  642.04   14.40
   2   6   2  644.14   21.00
   2   6   2  624.04   19.60
   2   6   2  637.74   14.50
  -3  -6  -2  733.13   23.20
  -3  -6  -2  765.92   25.30
  -3  -6  -2  737.83   23.30
   3   6   2  724.53   24.40
   3   6   2  708.93   18.40
   3   6   2  701.13   18.20
   3   6   2  747.23   22.90
   3   6   2  713.53   22.80
  -4  -6  -2   12.50    4.20
  -4  -6  -2   14.10    4.50
  -4  -6  -2   18.90    5.30
   4   6   2   10.90    4.90
   4   6   2   18.30    4.60
   4   6   2   13.20    3.90
   4   6   2   18.00    4.10
   4   6   2   20.10    3.80
  -5  -6  -2  500.95   20.20
  -5  -6  -2  498.45   21.60
  -5  -6  -2  482.55   14.00
  -5  -6  -2  485.85   20.10
   5   6   2  450.55   18.60
   5   6   2  475.35   17.40
   5   6   2  493.75   19.70
   5   6   2  492.05   17.80
  -6  -6  -2  153.88   13.00
  -6  -6  -2  139.99    8.50
  -6  -6  -2  150.68   13.10
  -6  -6  -2  147.39    8.40
   6   6   2  165.58   13.30
   6   6   2  157.88   11.20
  -7  -6  -2  577.44   23.90
  -7  -6  -2  596.94   19.90
  -7  -6  -2  557.14   26.70
  -7  -6  -2  558.74   19.70
   7   6   2  586.44   24.40
  -8  -6  -2  144.29   13.40
  -8  -6  -2  114.49    9.90
  -8  -6  -2  134.49   14.00
   8   6   2  121.09   11.80
   8   6   2  122.89   12.70
  -9  -6  -2   46.20    9.20
  -9  -6  -2   31.70    7.30
  -9  -6  -2   42.30    7.50
   9   6   2   43.50    8.60
   9   6   2   54.89    9.90
   9  -7  -2   80.29    9.80
  -9   7   2   80.79   11.70
  -9   7   2   71.19   11.60
   8  -7  -2  180.38   13.10
  -8   7   2  200.68   15.80
  -8   7   2  191.58   16.90
   7  -7  -2  109.69    9.10
   7  -7  -2   97.09    9.20
  -7   7   2  109.99   12.00
  -7   7   2   90.69   12.00
   6  -7  -2  114.99    8.10
   6  -7  -2  132.99    9.10
  -6   7   2  123.29   12.40
  -6   7   2  120.49   11.60
   5  -7  -2    1.20    3.10
   5  -7  -2    4.60    2.70
  -5   7   2   -1.40    3.80
  -5   7   2   -5.10    3.50
  -5   7   2    2.10    1.70
   4  -7  -2  181.38    6.60
   4  -7  -2  179.58    6.60
  -4   7   2  199.68   10.70
  -4   7   2  188.48   13.30
  -4   7   2  164.58   12.50
   3  -7  -2  769.52   25.60
  -3   7   2  772.42   19.60
  -3   7   2  776.22   21.10
  -3   7   2  783.52   25.20
  -3   7   2  798.92   28.10
  -3   7   2  776.62   21.00
   2  -7  -2  661.93   22.20
  -2   7   2  687.93   23.70
  -2   7   2  650.23   18.30
  -2   7   2  674.93   16.80
  -2   7   2  662.63   16.80
  -2   7   2  676.13   21.70
   1  -7  -2  137.89    8.70
  -1   7   2  136.39    4.90
  -1   7   2  136.79    4.80
  -1   7   2  137.69    9.90
  -1   7   2  136.09   11.00
  -1   7   2  128.49    8.10
   0  -7  -2  101.39   10.70
   0  -7  -2   90.39    7.30
   0   7   2   83.79    8.30
   0   7   2   93.29    7.40
   0   7   2   94.79    7.30
   0   7   2   95.89    8.40
  -1  -7  -2    5.80    5.00
  -1  -7  -2    1.80    3.90
   1   7   2    0.70    2.30
   1   7   2    3.20    4.00
   1   7   2    3.10    2.70
  -2  -7  -2  466.15   17.70
  -2  -7  -2  470.15   19.50
   2   7   2  449.86   11.00
   2   7   2  414.96   16.70
   2   7   2  431.26   11.00
   2   7   2  427.46   16.00
   2   7   2  440.76   17.90
  -3  -7  -2  312.97   16.20
  -3  -7  -2  321.67   15.40
  -3  -7  -2  336.97   15.80
   3   7   2  327.87   10.90
   3   7   2  309.67   15.80
   3   7   2  346.27   14.80
   3   7   2  321.37   10.90
  -4  -7  -2  249.48   14.00
  -4  -7  -2  263.97   14.70
  -4  -7  -2  278.97   16.10
   4   7   2  255.87   11.20
   4   7   2  264.27   11.30
   4   7   2  282.67   14.10
  -5  -7  -2  140.69   13.60
  -5  -7  -2  159.88   12.00
   5   7   2  166.38   11.60
   5   7   2  145.09    9.50
   5   7   2  135.89    9.20
  -6  -7  -2    4.90    5.30
  -6  -7  -2    5.20    2.70
  -6  -7  -2    8.30    4.60
   6   7   2   18.60    5.50
   6   7   2   12.80    4.50
  -7  -7  -2    3.20    4.60
  -7  -7  -2    8.10    3.60
  -7  -7  -2    8.30    4.10
  -7  -7  -2    2.10    6.00
   7   7   2    2.70    5.40
  -8  -7  -2  157.98   13.80
  -8  -7  -2  154.28   10.00
  -8  -7  -2  152.48   18.70
   8   7   2  144.79   12.70
   8   7   2  155.88   14.10
  -9  -7  -2   45.00    7.00
  -9  -7  -2   45.30    9.50
   9   7   2   54.69    8.70
   8  -8  -2   -4.20    4.50
  -8   8   2   -3.60    6.50
  -8   8   2   -5.40    4.10
   7  -8  -2   24.90    6.50
   7  -8  -2   16.10    5.20
  -7   8   2   10.40    6.30
  -7   8   2   16.40    7.00
   6  -8  -2  214.48   10.00
  -6   8   2  217.78   16.70
  -6   8   2  210.48    6.00
  -6   8   2  196.78   15.80
   5  -8  -2  274.67    8.90
   5  -8  -2  271.97    8.70
  -5   8   2  281.27   20.40
  -5   8   2  271.47   14.40
  -4   8   2   48.20    6.60
  -4   8   2   49.20    6.30
  -4   8   2   37.90    6.90
  -4   8   2   53.09    5.10
   3  -8  -2   51.79    7.30
  -3   8   2   64.59    8.90
  -3   8   2   63.89    6.10
  -3   8   2   68.89    6.50
  -3   8   2   75.09    8.80
  -3   8   2   64.69    6.10
   2  -8  -2   29.20    5.60
  -2   8   2   27.60    5.90
  -2   8   2   24.40    4.00
  -2   8   2   28.20    3.60
  -2   8   2   21.00    5.60
  -2   8   2   26.40    3.50
  -1   8   2  192.98   11.30
  -1   8   2  199.08   10.20
  -1   8   2  194.58    6.20
  -1   8   2  180.58   12.00
  -1   8   2  197.08    6.30
   0  -8  -2  459.75   21.10
   0  -8  -2  468.05   17.70
   0   8   2  489.05   18.00
   0   8   2  448.06   19.40
   0   8   2  460.15   17.30
   0   8   2  468.55   19.20
  -1  -8  -2  275.27   16.70
  -1  -8  -2  269.97   13.50
   1   8   2  249.38   14.10
   1   8   2  274.27   16.70
   1   8   2  254.37   12.80
   1   8   2  257.97   12.90
  -2  -8  -2   38.90    6.20
  -2  -8  -2   42.60    8.10
   2   8   2   30.10    2.80
   2   8   2   34.10    3.00
   2   8   2   32.60    5.20
  -3  -8  -2   11.40    4.40
  -3  -8  -2   19.80    5.30
  -3  -8  -2   14.70    5.90
   3   8   2   17.80    4.10
   3   8   2   15.90    3.10
   3   8   2   16.80    3.20
  -4  -8  -2   43.90    8.70
  -4  -8  -2   51.59    8.60
  -4  -8  -2   50.09    7.50
   4   8   2   53.19    7.00
   4   8   2   45.30    5.60
   4   8   2   47.10    5.20
  -5  -8  -2  298.77   18.20
  -5  -8  -2  279.07   16.40
  -5  -8  -2  296.17   16.80
   5   8   2  282.47   13.00
   5   8   2  302.97   14.00
   5   8   2  294.27   15.70
  -6  -8  -2  269.17   16.80
  -6  -8  -2  270.77   18.40
   6   8   2  279.77   15.90
   6   8   2  262.47   14.30
  -7  -8  -2   99.09   11.50
  -7  -8  -2   87.89   12.70
  -7  -8  -2   93.29    5.10
   7   8   2   92.29    9.40
   7   8   2   73.49   12.00
  -8  -8  -2   19.50    7.50
  -8  -8  -2   33.60    8.30
   8   8   2   47.30    8.80
   8   8   2   27.90    7.40
   8  -9  -2   12.30    6.20
  -8   9   2   35.40    9.30
  -7   9   2  197.48   14.70
  -7   9   2  166.78   15.60
  -6   9   2   18.40    5.30
  -6   9   2   13.90    2.50
  -6   9   2   28.50    7.20
  -5   9   2   70.79    8.40
  -5   9   2   56.89    9.40
  -5   9   2   52.59    5.40
  -4   9   2   17.60    6.60
  -4   9   2   -0.90    3.00
  -4   9   2    3.90    3.40
  -4   9   2    5.80    3.80
  -3   9   2 1022.90   27.20
  -3   9   2 1097.79   33.80
  -3   9   2 1069.39   27.10
  -3   9   2 1086.09   27.10
  -2   9   2  126.69   10.40
  -2   9   2  125.99    6.70
  -2   9   2  139.39    7.20
  -1   9   2  541.75   13.00
  -1   9   2  541.05   13.00
  -1   9   2  577.14   23.10
  -1   9   2  559.24   19.30
  -1   9   2  527.05   20.60
   0  -9  -2    2.70    5.40
   0  -9  -2    9.80    4.30
   0   9   2    0.90    3.60
   0   9   2    5.70    4.20
   0   9   2   10.00    4.80
  -1  -9  -2  269.97   14.40
  -1  -9  -2  270.37   17.40
   1   9   2  241.08   13.40
   1   9   2  281.87   14.30
  -2  -9  -2  165.08   12.70
  -2  -9  -2  177.58   14.30
   2   9   2  158.18    6.10
   2   9   2  163.68   10.80
   2   9   2  162.48   11.80
   2   9   2  159.28    6.30
  -3  -9  -2 1505.45   51.09
  -3  -9  -2 1360.36   39.20
   3   9   2 1366.46   30.40
   3   9   2 1348.27   30.20
   3   9   2 1375.46   36.10
  -4  -9  -2   36.80    8.10
  -4  -9  -2   32.90    6.50
  -4  -9  -2   49.40    9.00
   4   9   2   52.29    7.70
   4   9   2   64.69    8.00
   4   9   2   50.49    5.40
  -5  -9  -2  222.78   15.90
  -5  -9  -2  236.08   17.80
  -5  -9  -2  231.48   15.90
   5   9   2  223.48   14.00
   5   9   2  246.38   12.60
   5   9   2  240.28   12.70
  -6  -9  -2   11.50    6.00
  -6  -9  -2    5.30    5.80
   6   9   2    8.50    5.00
   6   9   2   12.30    4.80
  -7  -9  -2   85.69   14.10
  -7  -9  -2  111.89   16.70
   7   9   2  103.79   11.90
   7   9   2   99.49   10.80
  -8  -9  -2   39.10    8.60
   8   9   2   39.80    8.50
   8   9   2   28.60    6.90
  -7  10   2   55.59   11.00
  -7  10   2   67.19   10.60
  -6  10   2   30.20    6.10
  -5  10   2  337.17   16.70
  -5  10   2  323.27   12.20
  -5  10   2  360.56   21.30
  -4  10   2   34.40    5.70
  -4  10   2   21.90    7.40
  -4  10   2   20.80    5.40
  -4  10   2   24.50    4.50
  -3  10   2    1.50    2.40
  -3  10   2    5.10    6.10
  -3  10   2   -5.10    2.90
  -2  10   2   31.60    5.10
  -2  10   2   29.30    6.50
  -2  10   2   31.70    4.00
  -2  10   2   31.50    4.10
  -1  10   2  372.86   10.30
  -1  10   2  374.06   17.70
  -1  10   2  393.16   19.90
  -1  10   2  356.26   11.60
   0 -10  -2  153.88   14.80
   0  10   2  185.98   12.10
   0  10   2  165.58    4.60
   0  10   2  146.69   12.30
  -1 -10  -2  380.66   26.20
  -1 -10  -2  323.37   20.20
   1  10   2  359.26    8.90
   1  10   2  328.17    8.40
   1  10   2  375.06   17.10
   1  10   2  376.36   17.40
  -2 -10  -2   49.00    9.30
  -2 -10  -2   37.90    7.20
   2  10   2   29.70    5.30
   2  10   2   31.90    6.20
   2  10   2   34.80    3.20
  -3 -10  -2   -6.40    4.00
  -3 -10  -2  -12.30    5.50
   3  10   2   -5.80    2.70
   3  10   2    4.70    2.40
   3  10   2   -2.40    2.00
  -4 -10  -2   32.30    6.80
  -4 -10  -2   27.90    9.00
   4  10   2   23.00    5.20
   4  10   2   27.90    5.60
   4  10   2   23.40    4.20
  -5 -10  -2  358.26   22.00
  -5 -10  -2  340.87   19.70
   5  10   2  369.16   16.00
   5  10   2  324.97   16.70
  -6 -10  -2   29.00    9.80
  -6 -10  -2   62.09   12.20
   6  10   2   45.90    6.90
   6  10   2   24.50    6.10
  -7 -10  -2   60.19   12.50
  -7 -10  -2   63.29   11.00
   7  10   2   57.59    8.70
   7  10   2   56.99    8.70
  -6  11   2    0.60    5.00
  -5  11   2    1.50    4.90
  -5  11   2   -0.70    4.20
  -4  11   2  226.28   12.40
  -4  11   2  210.18   16.00
  -3  11   2    6.50    3.40
  -3  11   2    4.80    4.60
  -2  11   2  249.68   16.90
  -2  11   2  248.88   10.10
  -2  11   2  262.77   10.40
  -2  11   2  234.18   15.70
  -1  11   2    5.10    2.20
  -1  11   2   -8.10    3.70
  -1  11   2    0.00    4.80
  -1  11   2    0.50    1.80
   0  11   2   17.60    2.10
   0  11   2   10.70    4.40
   0  11   2   18.70    2.10
   0  11   2   16.50    5.50
  -1 -11  -2   -4.20    4.30
  -1 -11  -2   -5.20    4.70
   1  11   2   -6.20    3.00
   1  11   2   -2.10    1.30
   1  11   2   -2.90    2.80
   1  11   2   -1.50    1.50
  -2 -11  -2  419.06   24.90
  -2 -11  -2  349.07   19.00
   2  11   2  369.56   10.70
   2  11   2  383.76   19.00
   2  11   2  381.96   17.00
   2  11   2  386.56   10.90
  -3 -11  -2   -1.30    6.80
  -3 -11  -2    3.00    5.20
   3  11   2   -4.00    3.60
   3  11   2    0.30    2.40
   3  11   2    3.70    2.80
  -4 -11  -2  141.99   13.60
  -4 -11  -2  167.18   16.10
   4  11   2  168.78   10.60
   4  11   2  172.38   11.70
   4  11   2  161.38    9.40
  -5 -11  -2   -1.60    4.80
  -6 -11  -2   24.80    8.40
  -6 -11  -2   15.20    9.30
   6  11   2   20.40    6.20
   6  11   2   20.80    6.50
  -4  12   2   25.90    5.80
  -4  12   2   20.60    7.60
  -3  12   2    9.40    6.00
  -3  12   2   14.80    4.10
  -3  12   2   -1.80    5.20
  -2  12   2  122.19    7.20
  -2  12   2  111.39   15.00
  -2  12   2  119.49   12.70
  -2  12   2  138.49    7.50
  -1  12   2  201.88    7.80
  -1  12   2  206.08   15.70
  -1  12   2  206.38   14.90
  -1  12   2  199.48    7.80
   0  12   2  355.96   19.20
   0  12   2  342.77    9.30
   0  12   2  366.46   18.90
   0  12   2  336.97    9.10
  -1 -12  -2  116.19   15.30
   1  12   2  107.29   10.80
   1  12   2  106.09    9.90
   1  12   2  100.59    4.50
   1  12   2  102.79    4.60
  -2 -12  -2    9.30    7.10
  -2 -12  -2    0.70    4.40
   2  12   2    0.50    1.80
   2  12   2   -6.00    3.70
   2  12   2    2.70    4.20
  -3 -12  -2   63.09   12.70
  -3 -12  -2   36.00    8.70
   3  12   2   49.90    5.40
   3  12   2   38.70    7.20
   3  12   2   50.69    7.00
  -4 -12  -2  108.79   12.10
  -4 -12  -2  153.58   16.70
   4  12   2   82.19    8.90
   4  12   2  113.29   12.00
   4  12   2   92.29    7.60
  -5 -12  -2  191.58   18.40
   5  12   2  162.18   12.20
   5  12   2  185.58   10.90
  -3  13   2  212.68   17.80
  -3  13   2  198.28   15.60
  -3  13   2  211.78   12.50
  -2  13   2   -2.70    5.30
  -2  13   2   -3.80    4.40
  -1  13   2   -6.20    3.70
  -1  13   2    2.40    5.00
   0  13   2   -9.90    4.60
   0  13   2    9.30    5.30
  -1 -13  -2  122.79   16.60
   1  13   2  113.89   12.20
   1  13   2  121.89   10.40
  -2 -13  -2   13.30    9.40
   2  13   2   20.60    6.60
   2  13   2   16.90    5.10
  -3 -13  -2  183.38   15.20
  -3 -13  -2  149.79   17.10
   3  13   2  145.99   11.00
   3  13   2  204.88   15.20
   3  12  -3   80.19    8.60
   3  12  -3   63.99   11.30
   2  12  -3   -2.30    5.60
   2  12  -3    5.50    5.80
  -2 -12   3    4.30    6.80
   1  12  -3    4.80    4.40
   1  12  -3   -1.10    6.40
   0  12  -3   43.20   10.10
   0  12  -3   31.40    6.70
  -1  12  -3   65.89    8.30
  -1  12  -3   72.89   11.50
  -2  12  -3  104.89   13.70
  -2  12  -3  114.39    9.90
  -3  12  -3   69.29   11.90
   5  11  -3   -3.70    4.90
  -4 -11   3  101.39   15.00
   3  11  -3   18.60    5.30
   3  11  -3    2.90    8.70
  -3 -11   3    7.60    6.60
   2  11  -3  255.27   20.10
   2  11  -3  269.97   14.80
   1  11  -3   -9.50    6.50
   1  11  -3   12.20    5.00
  -1 -11   3    3.90    6.10
   0  11  -3   87.69    8.70
   0  11  -3   73.09   12.60
  -1  11  -3   -0.80    1.70
  -1  11  -3   -0.30    1.90
  -1  11  -3    5.00    4.00
  -1  11  -3   13.40    6.70
  -2  11  -3  150.38    8.80
  -2  11  -3  150.38   11.30
  -2  11  -3  143.09   15.10
  -2  11  -3  176.08   11.70
  -3  11  -3    7.70    4.00
  -3  11  -3    4.00    6.10
  -4  11  -3  175.58   17.30
  -4  11  -3  216.78   14.00
  -5  11  -3    3.40    6.00
  -5  11  -3    8.40    5.10
   6  10  -3   92.89   11.90
   5  10  -3  154.78   13.10
  -5 -10   3  174.18   17.60
   4  10  -3   45.10    7.80
  -4 -10   3   50.09   10.80
  -3 -10   3   99.79   14.40
   2  10  -3   73.09    8.10
   2  10  -3   62.79   10.70
  -2 -10   3   73.99   11.40
   1  10  -3  190.88   17.70
   1  10  -3  225.68   13.10
   1  10  -3  215.48   13.30
  -1 -10   3  221.38   19.90
   0  10  -3  291.47   20.00
   0  10  -3  272.37   14.10
   0  10  -3  269.47   14.00
  -1  10  -3  284.47   14.60
  -1  10  -3  256.87   10.00
  -1  10  -3  304.57   20.10
  -1  10  -3  269.07   12.90
  -1  10  -3  258.27    9.40
  -2  10  -3   60.39    7.70
  -2  10  -3   37.00    8.90
  -2  10  -3   41.80    5.30
  -3  10  -3   22.60    5.80
  -3  10  -3   18.90    7.40
  -4  10  -3   43.20    7.40
  -4  10  -3   36.20    8.80
  -5  10  -3  127.49   15.10
  -5  10  -3  118.29   11.80
  -6  10  -3   64.19    9.50
  -6  10  -3   66.19   11.30
   7   9  -3  164.18   15.10
   6   9  -3   19.20    5.60
  -6  -9   3   15.90    7.20
   5   9  -3    0.10    4.80
  -5  -9   3   -7.80    5.20
   4   9  -3    5.70    4.50
  -4  -9   3   -6.20    4.50
   3   9  -3  451.45   18.50
  -3  -9   3  439.26   24.50
   2   9  -3   65.49    7.80
   2   9  -3   65.59    7.60
   2   9  -3   60.69   10.30
  -2  -9   3   65.49   11.00
   1   9  -3  421.16   17.30
   1   9  -3  411.06   16.80
   1   9  -3  437.06   24.00
  -1  -9   3  387.86   22.90
   0   9  -3    2.90    5.50
   0   9  -3    7.50    4.20
  -1   9  -3    1.80    2.40
  -1   9  -3    9.50    5.30
  -1   9  -3   -1.90    3.70
  -1   9  -3    3.80    2.20
  -1   9  -3    4.50    3.30
  -2   9  -3   47.90    9.00
  -2   9  -3   47.80    6.70
  -2   9  -3   56.39    7.00
  -2   9  -3   49.99    5.70
  -3   9  -3  540.55   20.60
  -3   9  -3  542.75   19.50
  -3   9  -3  528.45   26.00
  -4   9  -3   58.69   10.10
  -4   9  -3   70.19    8.90
  -5   9  -3  228.18   14.70
  -5   9  -3  240.38   18.20
   5  -9   3  222.28    8.80
  -6   9  -3    3.30    4.70
   6  -9   3   -6.60    3.30
  -7   9  -3   11.40    5.90
  -7   9  -3   -0.30    5.60
   7  -9   3    2.90    4.80
   7   8  -3   12.20    6.20
  -7  -8   3   15.20    5.00
  -7  -8   3   24.50    8.40
   6   8  -3  250.77   15.70
  -6  -8   3  236.58   11.80
  -6  -8   3  249.58   11.30
  -6  -8   3  218.28   18.60
   5   8  -3   74.99    9.20
  -5  -8   3   51.49    5.00
  -5  -8   3   63.89   10.30
  -5  -8   3   77.79    5.30
   4   8  -3   21.70    5.70
  -4  -8   3   27.50    7.20
   3   8  -3  127.69    9.60
   3   8  -3  125.89    9.90
  -3  -8   3  112.69   12.70
   2   8  -3  177.38   11.30
  -2  -8   3  183.58   15.20
   1   8  -3   59.39    6.80
   1   8  -3   47.80    6.50
   1   8  -3   48.70    8.60
  -1  -8   3   41.60   10.50
   0   8  -3  499.65   24.00
   0   8  -3  533.95   18.10
   0   8  -3  555.94   23.40
   0  -8   3  553.04   26.40
  -1   8  -3   83.39    5.50
  -1   8  -3   75.29    8.00
  -1   8  -3   86.39    7.40
  -1   8  -3   82.49   11.00
  -2   8  -3   44.60    6.20
  -2   8  -3   42.20    6.30
  -2   8  -3   39.20    5.00
  -3   8  -3   16.80    5.40
  -3   8  -3   31.90    6.60
  -3   8  -3   17.20    4.40
  -3   8  -3   27.50    7.00
   3  -8   3   22.60    2.60
   3  -8   3   13.70    2.30
  -4   8  -3  221.38   13.30
  -4   8  -3  208.18   15.80
  -4   8  -3  191.88   12.70
   4  -8   3  225.48    9.00
  -5   8  -3  114.89   14.30
  -5   8  -3  113.29   12.50
   5  -8   3   93.89    8.40
   5  -8   3   99.39    7.50
  -6   8  -3  244.28   15.40
  -6   8  -3  231.58   18.10
   6  -8   3  232.58   12.30
  -7   8  -3   41.40    8.60
  -7   8  -3   31.90    8.30
   7  -8   3   26.30    6.30
  -8   8  -3   17.10    6.50
   8  -8   3    0.30    5.80
  -8  -7   3  110.59   14.20
  -8  -7   3  120.19   13.70
   7   7  -3    9.80    6.60
  -7  -7   3    4.10    6.00
  -7  -7   3   -0.80    5.30
  -7  -7   3    3.50    6.50
  -7  -7   3    2.70    4.80
   6   7  -3   -3.70    4.20
  -6  -7   3   -7.50    3.30
  -6  -7   3   -1.30    4.00
  -6  -7   3   -7.60    3.60
   5   7  -3    6.70    3.70
  -5  -7   3    7.00    3.60
  -5  -7   3    6.30    2.70
  -5  -7   3    3.00    5.40
  -5  -7   3   12.40    4.40
   4   7  -3  597.54   21.70
  -4  -7   3  599.14   17.10
  -4  -7   3  582.44   14.40
  -4  -7   3  624.84   26.30
  -4  -7   3  566.64   18.20
   3   7  -3  219.98   12.00
   3   7  -3  230.58   12.70
  -3  -7   3  219.48   15.50
  -3  -7   3  220.98    7.70
  -3  -7   3  226.78    7.90
   2   7  -3  293.67   13.00
   2   7  -3  263.37   13.40
  -2  -7   3  299.67   17.50
   1   7  -3  109.09    8.50
   1   7  -3  138.49   12.30
   1   7  -3  118.49    8.30
  -1  -7   3  129.99   13.00
   0   7  -3  113.69   11.20
   0   7  -3  139.39    9.40
   0   7  -3  121.09    8.10
   0  -7   3  135.09   12.70
  -1   7  -3   14.30    5.10
  -1   7  -3    1.00    2.10
  -1   7  -3    6.50    3.10
  -1   7  -3   10.20    5.40
  -2   7  -3  862.81   22.90
  -2   7  -3  875.11   24.60
  -2   7  -3  842.52   26.30
  -2   7  -3  893.31   30.90
  -2   7  -3  859.61   25.00
   2  -7   3  855.31   18.60
   2  -7   3  850.71   18.90
  -3   7  -3  266.57   13.60
  -3   7  -3  277.87   16.90
  -3   7  -3  263.67   12.80
  -3   7  -3  262.17   12.80
   3  -7   3  261.47    9.70
  -4   7  -3   70.19    8.20
  -4   7  -3   76.39    8.90
  -4   7  -3   72.09   10.00
   4  -7   3   86.59    7.30
  -5   7  -3  222.58   17.30
  -5   7  -3  223.98   14.20
   5  -7   3  226.48   11.60
   5  -7   3  208.48   11.10
  -6   7  -3  103.19   11.30
  -6   7  -3   84.89   11.60
   6  -7   3   81.59    8.40
   6  -7   3   82.39    8.60
  -7   7  -3    6.80    5.20
  -7   7  -3    0.50    5.50
  -8   7  -3  311.37   22.60
  -8   7  -3  223.48   19.20
   8  -7   3  239.78   14.90
   8   6  -3    9.90    6.80
  -8  -6   3    6.30    7.10
  -8  -6   3   14.20    5.20
   7   6  -3  254.87   17.20
  -7  -6   3  241.58   15.10
  -7  -6   3  242.88   14.40
  -7  -6   3  270.47   19.60
   6   6  -3  124.39   11.20
  -6  -6   3   93.99   11.80
  -6  -6   3  117.29   10.20
  -6  -6   3  114.39    9.00
  -6  -6   3  126.19    9.60
   5   6  -3  634.54   23.50
  -5  -6   3  652.83   19.40
  -5  -6   3  625.04   19.60
  -5  -6   3  628.24   21.50
  -5  -6   3  628.74   26.30
   4   6  -3   30.70    6.10
   4   6  -3   28.20    5.70
  -4  -6   3   33.80    4.70
  -4  -6   3   35.00    4.30
  -4  -6   3   25.60    6.50
   3   6  -3    4.20    3.60
  -3  -6   3    5.60    3.10
  -3  -6   3    1.50    2.60
  -3  -6   3    2.60    4.30
   2   6  -3  114.69   10.90
   2   6  -3  111.59    8.30
  -2  -6   3  110.59    5.60
  -2  -6   3  123.49   10.90
  -2  -6   3  114.79    6.10
   1   6  -3 1343.67   31.70
   1   6  -3 1171.08   36.50
   1   6  -3 1311.27   32.80
   1   6  -3 1330.77   34.60
  -1  -6   3 1363.26   38.50
  -1  -6   3 1311.07   26.10
  -1  -6   3 1324.27   26.20
   0   6  -3  234.38   10.70
   0   6  -3  226.08   12.10
   0   6  -3  209.88   13.50
   0   6  -3  228.38   14.40
   0   6  -3  235.28   11.80
   0  -6   3  229.28    7.20
   0  -6   3  212.58    7.00
   0  -6   3  235.48   15.40
  -1   6  -3 1296.57   38.00
  -1   6  -3 1249.68   33.00
  -1   6  -3 1283.07   27.10
  -1   6  -3 1252.07   32.40
  -1   6  -3 1254.67   30.50
  -1   6  -3 1318.47   37.60
   1  -6   3 1294.17   26.20
   1  -6   3 1311.67   26.60
  -2   6  -3   27.90    4.00
  -2   6  -3   39.70    7.90
  -2   6  -3   35.70    5.20
  -2   6  -3   36.70    6.70
   2  -6   3   33.60    4.00
  -3   6  -3   42.40    7.20
  -3   6  -3   43.30    7.10
  -3   6  -3   35.60    5.10
  -3   6  -3   42.70    6.50
   3  -6   3   56.69    6.00
   3  -6   3   44.00    5.00
  -4   6  -3  104.59    9.20
  -4   6  -3  108.69    9.00
  -4   6  -3  103.79   11.00
  -4   6  -3  108.39   11.10
   4  -6   3  115.49    8.10
   4  -6   3  102.69    8.10
  -5   6  -3  868.41   31.40
  -5   6  -3  917.01   29.50
   5  -6   3  887.51   25.90
   5  -6   3  915.71   32.60
  -6   6  -3  115.79   12.60
  -6   6  -3  126.69   11.10
   6  -6   3  115.89   11.00
   6  -6   3  117.49    9.40
  -7   6  -3  224.58   15.40
  -7   6  -3  211.48   18.10
   7  -6   3  219.28   16.60
  -8   6  -3   12.20    6.10
   8  -6   3    7.10    5.70
  -9   6  -3   -2.10    4.70
  -9   6  -3    2.30    6.50
   9  -6   3    9.60    6.50
   9   5  -3  194.78   16.20
  -9  -5   3  158.78   16.00
   8   5  -3   18.80    6.90
  -8  -5   3   12.80    6.80
  -8  -5   3   16.70    5.60
   7   5  -3    8.40    6.00
  -7  -5   3    2.00    5.10
  -7  -5   3    3.20    5.30
  -6  -5   3   83.39    8.70
  -6  -5   3   86.69    7.90
  -6  -5   3   94.09   11.30
  -6  -5   3   90.69    9.40
   5   5  -3  324.17   16.30
  -5  -5   3  322.57   14.20
  -5  -5   3  344.97   13.90
  -5  -5   3  349.67   18.10
  -5  -5   3  332.17   15.20
   4   5  -3  347.37   15.30
   4   5  -3  355.66   15.40
  -4  -5   3  355.46   17.80
  -4  -5   3  353.06   13.70
  -4  -5   3  357.16   14.40
  -4  -5   3  350.86   14.60
   3   5  -3 1246.08   32.90
   3   5  -3 1240.48   31.80
   3   5  -3 1267.47   35.80
   3   5  -3 1240.98   31.50
  -3  -5   3 1241.08   28.70
  -3  -5   3 1205.28   24.90
  -3  -5   3 1232.08   30.20
  -3  -5   3 1231.88   34.90
   2   5  -3   33.30    5.40
   2   5  -3   37.50    5.50
   2   5  -3   34.20    7.00
   2   5  -3   38.60    5.30
  -2  -5   3   40.10    4.30
  -2  -5   3   38.70    4.80
  -2  -5   3   33.80    6.40
   1   5  -3   -0.90    2.90
   1   5  -3   -0.20    3.00
   1   5  -3    4.20    4.10
   1   5  -3    0.20    3.40
  -1  -5   3   -1.10    2.00
  -1  -5   3    5.50    2.30
  -1  -5   3    0.70    4.10
   0   5  -3  178.78    9.80
   0   5  -3  165.38   11.80
   0   5  -3  158.78    9.80
   0   5  -3  151.48   11.40
   0   5  -3  153.88    8.60
   0  -5   3  162.88    6.80
   0  -5   3  182.48   12.70
   0  -5   3  158.48    6.80
  -1   5  -3 1155.08   32.40
  -1   5  -3 1109.79   32.80
  -1   5  -3 1139.29   27.10
  -1   5  -3 1078.09   23.50
  -1   5  -3 1048.30   28.20
   1  -5   3 1105.19   24.70
   1  -5   3 1037.40   23.90
  -2   5  -3  330.97   16.00
  -2   5  -3  306.77   16.90
  -2   5  -3  318.47   12.50
  -2   5  -3  325.57   12.10
  -2   5  -3  340.07   13.70
   2  -5   3  311.57   11.10
   2  -5   3  312.27   15.00
   2  -5   3  323.97   12.10
  -3   5  -3 1034.20   27.60
  -3   5  -3 1070.19   31.80
  -3   5  -3 1030.20   27.40
  -3   5  -3 1037.30   27.90
   3  -5   3 1014.00   30.70
   3  -5   3 1053.59   27.00
  -4   5  -3   14.50    4.80
  -4   5  -3   12.00    4.70
  -4   5  -3   11.20    4.80
  -4   5  -3   10.50    4.70
   4  -5   3   13.90    4.50
   4  -5   3   17.50    3.70
  -5   5  -3   12.80    4.90
  -5   5  -3    6.50    4.50
   5  -5   3   13.50    4.60
   5  -5   3    5.70    4.60
  -6   5  -3   99.79   13.00
  -6   5  -3  106.89   12.90
   6  -5   3  104.39   10.30
  -7   5  -3  309.57   18.00
  -7   5  -3  342.77   20.20
   7  -5   3  345.07   17.60
  -8   5  -3   71.19    8.30
  -8   5  -3   70.49   11.30
  -8   5  -3   91.99   11.40
   8  -5   3   59.79    9.10
  -9   5  -3   57.79   11.00
  -9   5  -3   69.89    7.90
  -9   5  -3   71.39   12.20
   9  -5   3   72.29   10.60
  -9  -4   3   21.40    7.40
  -9  -4   3   19.50    7.40
   8   4  -3  281.07   18.10
  -8  -4   3  253.07   16.80
  -8  -4   3  240.28   14.30
  -8  -4   3  244.48   17.60
   7   4  -3   49.10    8.90
  -7  -4   3   70.09   10.20
  -7  -4   3   64.39    8.10
   6   4  -3  933.91   30.10
  -6  -4   3  846.02   27.50
  -6  -4   3  813.32   34.50
  -6  -4   3  829.02   38.60
   5   4  -3   -3.20    3.20
   5   4  -3   -4.20    2.20
  -5  -4   3   -2.70    3.70
  -5  -4   3    0.60    3.40
  -5  -4   3   -0.50    3.10
  -5  -4   3    2.50    3.50
  -5  -4   3    7.80    4.50
   4   4  -3   49.50    6.70
   4   4  -3   46.30    7.10
   4   4  -3   48.70    6.50
   4   4  -3   38.10    5.50
  -4  -4   3   34.40    4.40
  -4  -4   3   50.19    6.70
  -4  -4   3   38.80    6.60
  -4  -4   3   30.20    5.10
   3   4  -3  240.68   11.90
   3   4  -3  242.48   11.50
   3   4  -3  236.88   11.80
   3   4  -3  250.37   13.80
  -3  -4   3  259.17   10.80
  -3  -4   3  255.67   12.00
  -3  -4   3  259.37    8.80
  -3  -4   3  233.18   12.70
   2   4  -3 1351.26   33.00
   2   4  -3 1427.96   36.10
   2   4  -3 1354.66   33.30
   2   4  -3 1411.86   32.40
  -2  -4   3 1350.36   31.70
  -2  -4   3 1376.46   30.30
  -2  -4   3 1365.86   35.00
  -2  -4   3 1428.66   25.20
   1   4  -3   96.99    7.80
   1   4  -3   99.89    9.00
   1   4  -3   86.39    7.30
  -1  -4   3  108.99   10.90
  -1  -4   3   92.69    6.30
   0   4  -3 1879.81   45.00
   0   4  -3 1793.92   49.80
   0   4  -3 1932.21   41.70
   0   4  -3 1949.70   34.00
   0   4  -3 1881.51   40.10
   0  -4   3 1975.10   38.60
   0  -4   3 1872.91   38.20
   0  -4   3 2033.00   51.29
  -1   4  -3   52.49    5.30
  -1   4  -3   62.49    7.80
  -1   4  -3   50.69    4.40
  -1   4  -3   51.29    6.90
  -1   4  -3   47.40    6.40
   1  -4   3   55.39    5.10
  -2   4  -3   87.49    9.20
  -2   4  -3   82.39    6.90
  -2   4  -3   79.99    6.40
  -2   4  -3   71.29    8.20
  -2   4  -3   71.99    6.30
   2  -4   3   83.49    7.10
   2  -4   3   64.19    7.40
   2  -4   3   74.39    6.10
  -3   4  -3  156.68    9.10
  -3   4  -3  160.68    9.90
  -3   4  -3  167.28   11.10
  -3   4  -3  165.68    9.60
   3  -4   3  161.58    8.80
   3  -4   3  176.18    9.60
  -4   4  -3  818.22   25.40
  -4   4  -3  841.62   25.30
  -4   4  -3  847.42   27.30
  -4   4  -3  868.51   25.30
   4  -4   3  778.82   23.20
   4  -4   3  797.82   26.50
   4  -4   3  848.12   23.90
  -5   4  -3   57.19    7.40
  -5   4  -3   64.59    8.50
  -5   4  -3   64.79    7.80
   5  -4   3   59.09    7.40
   5  -4   3   67.89    7.30
  -6   4  -3  578.04   29.20
  -6   4  -3  576.24   23.70
   6  -4   3  596.34   22.10
  -7   4  -3   15.40    5.90
  -7   4  -3   10.30    6.00
   7  -4   3   17.30    5.70
  -8   4  -3   36.50    9.10
  -8   4  -3   48.50    9.00
  -8   4  -3   38.90    6.20
   8  -4   3   48.50    8.40
  -9   4  -3    6.30    7.10
  -9   4  -3   -7.90    7.20
  -9   4  -3    0.50    3.80
   9  -4   3   10.20    5.80
   9   3  -3  193.18   16.50
  -9  -3   3  171.28   13.80
  -9  -3   3  152.18   14.80
   8   3  -3  248.08   17.10
  -8  -3   3  215.18   16.50
  -8  -3   3  256.27   14.00
  -8  -3   3  252.67   15.90
   7   3  -3    0.30    4.90
  -7  -3   3    7.00    4.40
  -7  -3   3   -2.00    4.00
  -7  -3   3    1.40    5.10
   6   3  -3   44.10    6.40
   6   3  -3   50.69    8.70
  -6  -3   3   47.60    6.70
  -6  -3   3   42.00    7.20
  -6  -3   3   46.50    6.30
  -6  -3   3   42.10    7.30
   5   3  -3  240.78   13.50
   5   3  -3  224.18   13.70
  -5  -3   3  257.77   12.80
  -5  -3   3  236.18   12.80
  -5  -3   3  236.08   13.00
  -5  -3   3  238.08   12.10
  -5  -3   3  246.28   14.00
   4   3  -3  873.31   25.30
   4   3  -3  884.01   24.70
   4   3  -3  918.91   40.00
   4   3  -3  833.02   25.70
  -4  -3   3  885.31   23.10
  -4  -3   3  912.91   27.20
  -4  -3   3  883.91   25.00
  -4  -3   3  840.32   24.10
   3   3  -3 1610.54   41.40
   3   3  -3 1614.14   39.20
   3   3  -3 1622.24   37.00
   3   3  -3 1580.74   37.40
  -3  -3   3 1595.84   37.10
  -3  -3   3 1684.73   33.90
  -3  -3   3 1599.74   36.20
  -3  -3   3 1628.64   38.70
   2   3  -3  425.46   14.80
   2   3  -3  433.26   14.80
   2   3  -3  430.16   15.20
   2   3  -3  425.66   16.00
  -2  -3   3  411.46   14.70
  -2  -3   3  433.06   15.80
  -2  -3   3  441.66   13.70
  -2  -3   3  440.26   10.70
   1   3  -3    1.40    3.00
   1   3  -3   -0.50    3.30
  -1  -3   3    4.80    3.70
  -1  -3   3    3.00    3.30
  -1  -3   3    0.70    2.80
   0   3  -3  729.23   20.60
   0   3  -3  774.42   15.30
   0   3  -3  737.73   22.10
   0   3  -3  764.62   19.80
   0  -3   3  711.43   18.40
   0  -3   3  755.62   22.50
   0  -3   3  757.32   21.20
   0  -3   3  747.23   15.90
  -1   3  -3  646.84   18.00
  -1   3  -3  665.63   19.30
  -1   3  -3  653.73   15.80
  -1   3  -3  702.33   21.00
  -1   3  -3  669.93   21.30
   1  -3   3  647.14   18.60
   1  -3   3  662.63   15.90
   1  -3   3  643.64   17.10
  -2   3  -3 2536.35   49.99
  -2   3  -3 2515.95   53.49
  -2   3  -3 2460.35   51.09
  -2   3  -3 2631.74   51.69
   2  -3   3 2475.85   50.19
   2  -3   3 2508.35   53.19
   2  -3   3 2455.85   50.09
   2  -3   3 2535.35   50.59
  -3   3  -3  629.74   19.70
  -3   3  -3  669.43   21.40
  -3   3  -3  663.93   19.90
   3  -3   3  660.73   21.30
   3  -3   3  629.54   18.90
   3  -3   3  633.74   19.90
   3  -3   3  647.84   19.00
  -4   3  -3   69.19    7.30
  -4   3  -3   67.19    7.80
  -4   3  -3   74.09    7.60
   4  -3   3   57.99    6.20
   4  -3   3   61.69    8.50
   4  -3   3   68.49    7.70
   4  -3   3   66.29    8.30
  -5   3  -3   49.90    7.00
  -5   3  -3   57.49    7.20
  -5   3  -3   54.09    7.30
  -5   3  -3   57.19    7.70
   5  -3   3   67.49    8.30
   5  -3   3   55.79    7.70
   5  -3   3   58.89    6.70
   5  -3   3   62.29    7.70
  -6   3  -3  344.67   17.00
  -6   3  -3  318.27   17.40
   6  -3   3  313.57   15.80
  -7   3  -3  202.08   14.20
  -7   3  -3  182.38   14.60
  -7   3  -3  186.18   11.10
   7  -3   3  213.98   14.50
  -8   3  -3  565.84   25.00
  -8   3  -3  496.75   25.30
  -8   3  -3  500.25   19.40
   8  -3   3  539.45   23.60
  -9   3  -3  100.49   13.20
  -9   3  -3  144.09   14.10
  -9   3  -3  122.59    9.70
   9  -3   3  111.79   12.00
 -10   3  -3   27.10    8.30
  10  -3   3   39.60    9.90
 -10  -2   3    0.50    5.90
 -10  -2   3   15.80    7.90
  -9  -2   3   99.79   12.40
  -9  -2   3  132.89   13.60
   8   2  -3   -5.70    6.30
  -8  -2   3    1.10    4.90
  -8  -2   3   -1.10    3.90
  -8  -2   3   -7.30    3.20
   7   2  -3  592.34   20.40
   7   2  -3  613.14   25.20
  -7  -2   3  632.34   21.30
  -7  -2   3  647.64   24.60
   6   2  -3   53.79    8.40
   6   2  -3   59.09    6.60
  -6  -2   3   45.90    7.50
  -6  -2   3   61.79    7.00
  -6  -2   3   48.70    7.60
  -6  -2   3   40.90    6.60
   5   2  -3  234.48   12.70
   5   2  -3  233.48   11.00
   5   2  -3  225.38   12.70
   5   2  -3  250.17   16.50
  -5  -2   3  234.18   12.40
  -5  -2   3  215.28   12.30
  -5  -2   3  242.18   11.10
  -5  -2   3  239.48   13.30
  -5  -2   3  228.98   13.00
   4   2  -3  259.67   14.40
   4   2  -3  229.48   12.00
   4   2  -3  240.08   10.80
  -4  -2   3  244.58   11.40
  -4  -2   3  228.58   11.20
  -4  -2   3  239.88   12.10
  -4  -2   3  240.78   11.90
   3   2  -3 1123.39   28.70
   3   2  -3 1134.49   33.90
   3   2  -3 1123.19   26.70
   3   2  -3 1108.69   28.70
  -3  -2   3 1070.89   27.70
  -3  -2   3 1114.69   28.70
  -3  -2   3 1121.49   27.70
  -3  -2   3 1174.88   29.30
   2   2  -3  226.38   10.20
   2   2  -3  222.48   10.20
   2   2  -3  235.48    9.60
   2   2  -3  232.08   10.50
  -2  -2   3  212.18   10.00
  -2  -2   3  218.18   10.70
  -2  -2   3  227.38    9.70
   1   2  -3 3410.76   65.99
   1   2  -3 3326.07   66.09
  -1  -2   3 3532.15   64.49
  -1  -2   3 3391.16   65.69
  -1  -2   3 3381.56   65.69
  -1  -2   3 3519.45   61.09
   0   2  -3  361.66   15.80
   0   2  -3  400.76   12.90
   0   2  -3  405.36   10.30
   0   2  -3  382.16   13.50
   0  -2   3  402.06    9.70
   0  -2   3  386.96   12.40
   0  -2   3  386.16   13.90
   0  -2   3  397.96   13.60
  -1   2  -3  217.48    9.20
  -1   2  -3  242.68    8.50
  -1   2  -3  244.38   11.20
  -1   2  -3  249.48   10.90
  -1   2  -3  251.17   10.80
   1  -2   3  235.08    8.30
   1  -2   3  241.78   11.80
   1  -2   3  247.98   10.40
   1  -2   3  235.28    9.50
  -2   2  -3  119.29    7.20
  -2   2  -3  114.49    7.50
  -2   2  -3  119.69    7.60
  -2   2  -3  104.39    7.60
   2  -2   3  105.39    7.40
   2  -2   3  105.29    7.00
   2  -2   3  107.69    7.60
   2  -2   3  105.09    7.00
  -3   2  -3 1807.42   40.30
  -3   2  -3 1801.12   41.10
  -3   2  -3 1834.02   40.60
  -3   2  -3 1852.91   40.30
   3  -2   3 1869.81   40.40
   3  -2   3 1740.83   40.30
   3  -2   3 1831.42   41.40
   3  -2   3 1847.52   40.00
  -4   2  -3   -0.80    2.90
  -4   2  -3    5.30    3.80
  -4   2  -3   -1.70    3.20
  -4   2  -3    0.20    3.40
   4  -2   3    4.00    3.10
   4  -2   3    5.90    3.80
   4  -2   3   -0.90    3.00
   4  -2   3    3.20    3.30
  -5   2  -3 1801.32   43.40
  -5   2  -3 1795.72   43.80
  -5   2  -3 1781.62   45.10
  -5   2  -3 1807.92   44.90
   5  -2   3 1740.83   42.60
   5  -2   3 1785.72   43.00
   5  -2   3 1839.92   45.60
   5  -2   3 1801.82   44.50
  -6   2  -3   29.70    6.00
  -6   2  -3   23.40    6.20
  -6   2  -3   24.30    4.80
   6  -2   3   31.90    6.90
   6  -2   3   25.50    6.10
  -7   2  -3    4.20    4.30
  -7   2  -3    3.90    7.00
  -7   2  -3    0.40    4.00
   7  -2   3    2.80    5.00
   7  -2   3    8.40    5.10
  -8   2  -3   -2.30    3.50
  -8   2  -3    9.60    6.00
  -8   2  -3   -1.50    5.40
   8  -2   3   -6.60    4.00
  -9   2  -3  291.27   20.40
  -9   2  -3  302.97   15.40
  -9   2  -3  302.17   19.70
   9  -2   3  307.47   19.20
 -10   2  -3    0.30    5.00
 -10   2  -3   10.40    6.70
 -10   2  -3    3.50    4.30
  10  -2   3    0.10    5.40
 -10  -1   3   86.79   13.50
 -10  -1   3  115.09   13.10
   9   1  -3   34.30    9.10
   9   1  -3   18.30    5.70
  -9  -1   3   38.90    9.10
  -9  -1   3   49.20    9.60
   8   1  -3   35.50    9.10
   8   1  -3   32.80    5.50
  -8  -1   3   31.50    5.00
  -8  -1   3   22.60    6.50
  -8  -1   3   44.70    9.20
   7   1  -3  333.47   17.80
   7   1  -3  305.27   13.00
  -7  -1   3  313.17   17.00
  -7  -1   3  292.57   13.10
  -7  -1   3  298.37   17.60
   6   1  -3   80.89    6.80
   6   1  -3   93.29    9.60
  -6  -1   3   80.29    8.80
  -6  -1   3  107.29   10.70
  -6  -1   3   81.09    9.00
  -6  -1   3   86.49    7.00
   5   1  -3  528.35   19.40
   5   1  -3  526.85   20.70
   5   1  -3  521.25   19.60
   5   1  -3  545.55   16.50
  -5  -1   3  543.95   19.70
  -5  -1   3  537.85   16.40
  -5  -1   3  509.25   18.80
  -5  -1   3  506.75   18.90
  -5  -1   3  522.95   19.40
   4   1  -3  655.73   18.00
   4   1  -3  675.43   21.30
   4   1  -3  702.63   21.50
   4   1  -3  665.03   22.00
  -4  -1   3  682.53   20.80
  -4  -1   3  666.03   21.20
  -4  -1   3  669.53   20.30
   3   1  -3   22.90    3.40
   3   1  -3   22.40    4.60
   3   1  -3   25.90    5.10
   3   1  -3   19.90    4.40
  -3  -1   3   25.10    4.80
  -3  -1   3   21.90    4.60
  -3  -1   3   20.20    4.50
   2   1  -3   38.60    4.70
   2   1  -3   36.60    4.90
   2   1  -3   33.00    5.10
  -2  -1   3   38.70    4.80
  -2  -1   3   32.80    4.80
  -2  -1   3   31.50    4.20
   1   1  -3  732.43   17.90
   1   1  -3  731.93   18.50
   1   1  -3  730.73   19.10
  -1  -1   3  731.43   21.00
  -1  -1   3  716.93   19.00
  -1  -1   3  712.73   17.40
   0   1  -3 2189.58   44.40
   0   1  -3 2235.88   41.90
   0   1  -3 2144.29   46.40
   0   1  -3 2176.78   42.80
   0  -1   3 2174.18   43.40
   0  -1   3 2091.49   43.30
   0  -1   3 2151.98   41.10
   0  -1   3 2202.78   43.10
  -1   1  -3   73.79    6.10
  -1   1  -3   79.99    5.90
  -1   1  -3   82.89    5.60
  -1   1  -3   77.29    5.80
   1  -1   3   77.29    5.80
   1  -1   3   78.59    5.80
   1  -1   3   83.79    6.10
  -2   1  -3 1684.83   35.80
  -2   1  -3 1617.54   35.70
  -2   1  -3 1641.54   35.70
  -2   1  -3 1719.93   36.00
   2  -1   3 1697.83   35.80
   2  -1   3 1683.03   36.10
   2  -1   3 1723.33   36.00
   2  -1   3 1724.93   35.90
  -3   1  -3  112.19    7.60
  -3   1  -3  111.39    8.20
  -3   1  -3  103.39    7.70
  -3   1  -3  114.49    8.60
   3  -1   3  107.79    8.10
   3  -1   3  103.39    7.50
   3  -1   3  111.89    7.70
   3  -1   3  101.39    7.50
  -4   1  -3   -1.00    3.60
  -4   1  -3   -3.40    3.80
  -4   1  -3    0.40    3.40
  -4   1  -3    2.90    3.40
   4  -1   3   -2.20    4.20
   4  -1   3    6.10    3.30
   4  -1   3   -1.90    2.90
   4  -1   3    0.40    3.40
  -5   1  -3  363.06   15.40
  -5   1  -3  375.86   16.90
  -5   1  -3  367.96   15.90
  -5   1  -3  384.96   14.70
  -5   1  -3  379.46   16.60
   5  -1   3  378.26   16.30
   5  -1   3  349.87   15.50
   5  -1   3  350.36   18.40
   5  -1   3  365.36   16.90
  -6   1  -3  732.23   22.50
  -6   1  -3  721.53   25.80
  -6   1  -3  723.13   25.20
   6  -1   3  727.23   25.50
   6  -1   3  696.13   26.20
  -7   1  -3   59.49    9.70
  -7   1  -3   47.40    6.50
  -7   1  -3   43.70    8.50
   7  -1   3   45.10    9.50
  -8   1  -3  369.26   20.90
  -8   1  -3  358.76   15.90
  -8   1  -3  376.76   20.60
   8  -1   3  333.27   20.50
   8  -1   3  351.56   19.20
  -9   1  -3   -0.10    5.20
  -9   1  -3   -1.20    5.00
  -9   1  -3   -3.20    3.70
   9  -1   3   12.70    6.90
 -10   1  -3    4.50    6.50
 -10   1  -3   -2.30    3.90
 -10   1  -3  -10.90    4.50
  10  -1   3  -10.60    4.40
  10   0  -3    8.50    6.90
 -10   0   3    5.70    6.80
 -10   0   3    9.80    6.70
   9   0  -3   15.50    6.50
  -9   0   3   -0.90    5.30
  -9   0   3   -1.60    4.60
   8   0  -3  647.14   20.20
   8   0  -3  718.23   28.40
  -8   0   3  680.43   27.80
  -8   0   3  703.93   28.10
   7   0  -3   -5.20    3.90
   7   0  -3   -3.50    2.40
  -7   0   3   -0.90    4.90
  -7   0   3   -0.10    2.60
  -7   0   3   -9.90    3.40
   6   0  -3 1121.39   26.60
   6   0  -3 1190.08   34.30
  -6   0   3 1131.69   33.00
  -6   0   3 1131.39   26.80
  -6   0   3 1164.38   34.00
  -6   0   3 1182.88   38.90
   5   0  -3    5.10    2.20
   5   0  -3   10.20    4.40
   5   0  -3    8.90    3.60
   5   0  -3    2.50    4.00
  -5   0   3    8.80    4.70
  -5   0   3    5.00    3.60
  -5   0   3    2.60    3.40
  -5   0   3    6.50    4.70
   4   0  -3  477.95   18.00
   4   0  -3  494.75   17.30
   4   0  -3  487.95   17.20
  -4   0   3  462.15   16.80
  -4   0   3  485.75   17.30
  -4   0   3  494.25   17.30
  -4   0   3  474.85   16.30
   3   0  -3    0.00    3.30
   3   0  -3    1.70    3.10
   3   0  -3   -0.10    3.00
   3   0  -3    2.90    2.20
  -3   0   3   -0.40    2.60
  -3   0   3    1.00    3.40
  -3   0   3    1.90    3.20
   2   0  -3 1786.22   37.30
   2   0  -3 1784.62   37.50
   2   0  -3 1808.42   37.60
  -2   0   3 1721.33   37.00
  -2   0   3 1704.13   34.80
  -2   0   3 1759.92   37.10
   1   0  -3    1.90    2.90
   1   0  -3    1.00    1.80
  -1   0   3    1.80    1.70
  -1   0   3   -1.70    2.60
   0   0  -3 1304.27   27.90
   0   0  -3 1268.67   28.20
   0   0  -3 1259.37   27.90
   0   0  -3 1288.27   25.30
   0   0   3 1245.18   27.50
   0   0   3 1266.07   27.90
   0   0   3 1279.67   28.20
  -1   0  -3    1.20    1.70
  -1   0  -3    4.90    2.80
  -1   0  -3    2.30    2.90
  -1   0  -3    1.90    2.50
   1   0   3   -0.30    2.10
   1   0   3    1.10    2.60
   1   0   3   -0.10    2.80
   1   0   3    2.90    2.50
  -2   0  -3 3386.16   64.09
  -2   0  -3 3327.17   63.79
  -2   0  -3 3358.06   63.29
  -2   0  -3 3419.06   65.09
   2   0   3 3355.16   63.89
   2   0   3 3396.16   65.09
   2   0   3 3466.45   64.49
   2   0   3 3395.86   62.99
  -3   0  -3   -0.80    2.70
  -3   0  -3   -3.10    2.60
  -3   0  -3    3.20    3.30
  -3   0  -3   -2.40    2.90
   3   0   3   -0.80    3.10
   3   0   3    2.90    3.10
   3   0   3    4.30    3.40
   3   0   3    1.10    3.20
  -4   0  -3 1183.78   28.90
  -4   0  -3 1173.88   29.40
  -4   0  -3 1085.29   29.30
  -4   0  -3 1143.89   29.60
  -4   0  -3 1215.28   31.60
   4   0   3 1172.58   29.60
   4   0   3 1148.69   29.30
   4   0   3 1150.38   29.70
   4   0   3 1196.88   31.50
  -5   0  -3    6.40    3.50
  -5   0  -3    1.10    3.10
  -5   0  -3    4.40    3.90
  -5   0  -3    6.00    4.60
  -5   0  -3    0.00    2.90
   5   0   3    7.70    3.20
   5   0   3    0.90    3.30
   5   0   3    5.90    3.30
   5   0   3    7.30    4.00
  -6   0  -3  427.36   18.30
  -6   0  -3  423.86   19.20
  -6   0  -3  428.36   16.30
   6   0   3  442.16   20.10
   6   0   3  424.36   18.40
   6   0   3  402.76   17.80
  -7   0  -3    1.00    2.90
  -7   0  -3    5.10    5.00
  -7   0  -3   -7.40    3.30
  -8   0  -3  334.47   19.60
  -8   0  -3  380.46   19.30
  -8   0  -3  321.47   15.60
   8   0   3  387.26   22.50
   8   0   3  332.87   18.80
  -9   0  -3    1.50    4.40
  -9   0  -3   13.70    5.70
   9   0   3    4.30    4.90
   9   0   3    6.50    5.50
 -10   0  -3  355.76   23.60
 -10   0  -3  375.56   18.20
 -10   0  -3  403.86   23.30
  10   0   3  351.16   21.40
  10  -1  -3  100.29   12.40
 -10   1   3   74.29   12.00
 -10   1   3   94.59   15.40
   9  -1  -3    3.20    6.40
  -9   1   3    9.90    5.20
  -9   1   3   -1.30    6.60
   8  -1  -3   13.30    6.30
  -8   1   3   15.00    6.80
  -8   1   3   12.00    5.90
   7  -1  -3  333.27   17.60
  -7   1   3  327.47   18.80
  -7   1   3  312.27   17.40
   6  -1  -3  248.38   10.50
   6  -1  -3  231.98   13.70
  -6   1   3  255.97   14.50
  -6   1   3  218.78   14.40
   5  -1  -3  196.48    7.20
   5  -1  -3  210.28   12.40
   5  -1  -3  203.88   11.30
   5  -1  -3  203.38   12.20
  -5   1   3  205.98   12.70
  -5   1   3  182.38   11.80
  -5   1   3  186.08   10.90
  -5   1   3  205.88   12.00
   4  -1  -3  813.12   23.60
   4  -1  -3  820.12   17.70
   4  -1  -3  826.32   24.60
   4  -1  -3  839.82   23.80
  -4   1   3  849.52   25.00
  -4   1   3  845.62   24.20
  -4   1   3  839.82   24.00
   3  -1  -3   26.50    4.80
   3  -1  -3   40.80    5.30
   3  -1  -3   26.30    4.70
   3  -1  -3   31.80    2.90
  -3   1   3   28.90    5.00
  -3   1   3   28.90    4.80
  -3   1   3   31.50    4.90
   2  -1  -3   30.00    6.40
   2  -1  -3   36.50    4.50
   2  -1  -3   36.40    4.60
  -2   1   3   36.70    4.70
  -2   1   3   38.40    4.80
   1  -1  -3 1360.06   28.80
   1  -1  -3 1397.36   27.90
   1  -1  -3 1435.56   29.70
  -1   1   3 1373.66   29.20
  -1   1   3 1376.46   29.40
   0  -1  -3 2052.19   42.90
   0  -1  -3 2107.39   40.90
   0  -1  -3 2076.69   41.20
   0   1   3 2140.99   43.50
   0   1   3 2167.58   41.80
   0   1   3 2135.09   41.60
  -1  -1  -3  422.76   13.50
  -1  -1  -3  420.06   12.30
  -1  -1  -3  425.86    9.90
  -1  -1  -3  435.66   12.30
   1   1   3  450.75   13.90
   1   1   3  431.96   12.10
   1   1   3  433.36   10.00
   1   1   3  423.06   12.70
  -2  -1  -3  735.03   19.80
  -2  -1  -3  721.53   20.50
  -2  -1  -3  696.03   16.60
  -2  -1  -3  699.03   18.00
   2   1   3  740.73   20.00
   2   1   3  701.33   16.70
   2   1   3  735.33   18.30
   2   1   3  710.33   18.10
  -3  -1  -3   11.50    3.50
  -3  -1  -3   14.90    4.10
  -3  -1  -3    8.70    3.50
  -3  -1  -3    8.60    3.30
  -3  -1  -3   11.90    3.50
   3   1   3   13.50    4.20
   3   1   3   10.50    3.80
   3   1   3   13.00    4.00
   3   1   3   10.50    3.40
  -4  -1  -3  151.98    9.80
  -4  -1  -3  157.88   10.30
  -4  -1  -3  150.88    9.60
  -4  -1  -3  151.68   10.80
  -4  -1  -3  161.48    9.50
   4   1   3  159.88    9.40
   4   1   3  155.88    9.70
   4   1   3  161.08   10.80
   4   1   3  162.88    9.10
  -5  -1  -3  862.51   25.80
  -5  -1  -3  868.51   25.70
  -5  -1  -3  859.01   24.70
  -5  -1  -3  873.41   25.60
  -5  -1  -3  844.62   27.10
   5   1   3  886.81   26.50
   5   1   3  856.81   25.50
   5   1   3  863.31   25.70
   5   1   3  887.81   28.30
  -6  -1  -3  737.03   24.20
  -6  -1  -3  736.23   24.60
  -6  -1  -3  753.62   25.90
  -6  -1  -3  771.42   23.80
   6   1   3  785.02   25.80
   6   1   3  766.12   27.30
   6   1   3  785.12   25.60
  -7  -1  -3   45.60    7.00
  -7  -1  -3   49.40    7.90
  -7  -1  -3   51.99    7.80
   7   1   3   49.90   10.20
  -8  -1  -3   99.59   10.70
  -8  -1  -3  107.49    9.80
  -8  -1  -3   78.39   10.60
   8   1   3  106.19   12.60
   8   1   3  101.89   12.70
  -9  -1  -3    3.20    5.80
  -9  -1  -3    8.70    4.60
  -9  -1  -3    2.90    4.70
   9   1   3    2.40    5.50
   9   1   3    0.40    5.40
 -10  -1  -3    6.50    5.10
 -10  -1  -3    6.90    5.80
 -10  -1  -3   11.90    8.80
  10   1   3   32.80    8.10
 -10   2   3   19.00    8.70
   9  -2  -3  270.97   18.80
  -9   2   3  270.77   19.50
  -9   2   3  291.17   19.60
   8  -2  -3   19.80    6.40
  -8   2   3   10.10    7.10
  -8   2   3   15.30    7.30
   7  -2  -3  245.38   15.70
  -7   2   3  237.68   16.60
  -7   2   3  230.88   15.10
   6  -2  -3  114.09   10.10
  -6   2   3  113.59   10.40
  -6   2   3  110.29   11.10
   5  -2  -3  156.98   11.60
   5  -2  -3  161.78   10.40
   5  -2  -3  164.68   10.20
  -5   2   3  149.88    9.90
  -5   2   3  169.38   11.10
  -5   2   3  159.98   11.30
   4  -2  -3   50.19    6.70
   4  -2  -3   69.39    7.10
   4  -2  -3   57.29    7.10
  -4   2   3   61.99    7.20
  -4   2   3   58.29    6.60
  -4   2   3   59.09    6.90
   3  -2  -3 3945.51   74.99
   3  -2  -3 3968.00   75.99
   3  -2  -3 3863.21   75.09
  -3   2   3 4092.99   76.59
  -3   2   3 3868.81   75.39
  -3   2   3 3925.31   75.69
   2  -2  -3  792.82   21.70
   2  -2  -3  744.23   19.10
   2  -2  -3  786.52   19.40
  -2   2   3  767.12   19.40
  -2   2   3  739.43   19.30
  -2   2   3  757.52   19.30
   1  -2  -3 3066.19   55.29
   1  -2  -3 3109.09   56.49
   1  -2  -3 2964.60   57.39
  -1   2   3 3062.29   56.99
  -1   2   3 3114.39   55.49
   0  -2  -3   52.99    4.00
   0  -2  -3   48.40    2.00
   0  -2  -3   47.00    4.00
   0  -2  -3   52.19    4.10
   0  -2  -3   48.50    2.60
   0   2   3   48.70    4.10
   0   2   3   44.40    4.50
   0   2   3   50.69    6.20
  -1  -2  -3  369.66   10.30
  -1  -2  -3  382.96    7.90
  -1  -2  -3  387.06   11.80
  -1  -2  -3  374.56   10.30
  -1  -2  -3  378.66   13.90
  -1  -2  -3  406.76   11.40
   1   2   3  382.26   13.70
   1   2   3  385.76   11.30
   1   2   3  385.06    7.90
   1   2   3  369.16   10.60
  -2  -2  -3  107.39    5.90
  -2  -2  -3  133.99    8.20
  -2  -2  -3  124.59    6.20
  -2  -2  -3  127.69    7.50
  -2  -2  -3  117.99    5.40
   2   2   3  120.19    6.50
   2   2   3  101.99    7.80
   2   2   3  120.19    5.40
   2   2   3  113.49    6.70
  -3  -2  -3 3815.42   73.49
  -3  -2  -3 3891.71   73.49
  -3  -2  -3 3929.11   74.89
  -3  -2  -3 3972.50   77.09
  -3  -2  -3 3781.82   72.99
   3   2   3 4019.50   76.49
   3   2   3 3988.60   74.49
   3   2   3 3967.10   74.59
   3   2   3 3978.00   77.39
  -4  -2  -3  234.38   10.60
  -4  -2  -3  250.57   11.80
  -4  -2  -3  248.48   11.30
  -4  -2  -3  243.68   12.60
  -4  -2  -3  226.28   11.30
   4   2   3  237.58   10.80
   4   2   3  245.58   12.90
   4   2   3  229.48   13.80
   4   2   3  245.98   11.60
  -5  -2  -3  883.41   25.20
  -5  -2  -3  842.22   27.20
  -5  -2  -3  871.51   25.00
  -5  -2  -3  863.41   24.80
  -5  -2  -3  882.31   25.80
   5   2   3  825.32   25.20
   5   2   3  885.61   26.20
   5   2   3  932.81   28.90
   5   2   3  880.01   25.50
  -6  -2  -3   33.60    6.00
  -6  -2  -3   19.50    4.80
  -6  -2  -3   34.90    6.30
  -6  -2  -3   29.50    5.60
   6   2   3   27.50    5.40
   6   2   3   39.50    7.40
   6   2   3   28.70    6.10
  -7  -2  -3  169.38   11.30
  -7  -2  -3  170.48   13.20
  -7  -2  -3  160.28   11.80
   7   2   3  132.49   15.10
  -8  -2  -3   63.69    9.30
  -8  -2  -3   37.60    6.90
  -8  -2  -3   40.70    8.10
   8   2   3   46.90    9.50
   8   2   3   38.30    8.30
  -9  -2  -3  285.27   20.50
  -9  -2  -3  326.27   18.60
  -9  -2  -3  336.27   21.30
  -9  -2  -3  338.07   17.10
   9   2   3  306.17   20.80
   9   2   3  315.77   19.30
 -10  -2  -3   37.30    7.60
 -10  -2  -3   31.20    9.00
  10   2   3   36.60    8.70
  10   2   3   26.50    9.30
  10  -3  -3  137.99   15.50
   9  -3  -3   37.70    8.10
  -9   3   3   36.40    8.40
   8  -3  -3    1.90    5.40
  -8   3   3   -4.20    5.50
  -8   3   3    1.20    4.90
  -7   3   3  221.18   14.70
  -7   3   3  220.48   15.40
   6  -3  -3 1101.29   31.90
  -6   3   3 1080.79   32.70
  -6   3   3 1119.99   34.50
   5  -3  -3  721.53   22.80
   5  -3  -3  714.63   24.30
  -5   3   3  700.23   23.10
  -5   3   3  677.83   22.60
  -5   3   3  712.83   24.30
   4  -3  -3  637.34   19.50
   4  -3  -3  622.14   20.60
   4  -3  -3  618.94   19.10
  -4   3   3  641.04   20.10
  -4   3   3  669.03   21.40
  -4   3   3  624.74   19.80
   3  -3  -3  115.09    8.00
   3  -3  -3  111.99    7.30
   3  -3  -3  114.59    7.30
  -3   3   3  125.29    7.70
  -3   3   3  109.89    7.90
  -3   3   3  111.69    8.10
   2  -3  -3  159.18    7.30
   2  -3  -3  156.68    9.20
   2  -3  -3  160.68    7.10
  -2   3   3  149.09    7.60
  -2   3   3  148.39    7.40
  -2   3   3  168.68    7.90
   1  -3  -3  835.72   17.60
   1  -3  -3  793.02   18.40
   1  -3  -3  853.81   18.30
   1  -3  -3  830.52   17.50
  -1   3   3  842.82   18.20
  -1   3   3  821.62   18.80
  -1   3   3  842.12   18.30
   0  -3  -3 3706.83   63.59
   0  -3  -3 3683.13   63.49
   0  -3  -3 3379.46   65.59
   0  -3  -3 3545.75   66.49
   0  -3  -3 3658.53   63.49
   0   3   3 3713.23   65.59
   0   3   3 3707.63   72.19
   0   3   3 3779.02   66.89
   0   3   3 3704.73   65.49
   0   3   3 3744.43   65.09
  -1  -3  -3  724.23   14.80
  -1  -3  -3  709.13   18.10
  -1  -3  -3  721.13   14.70
  -1  -3  -3  720.93   21.70
  -1  -3  -3  700.93   17.10
   1   3   3  714.33   21.20
   1   3   3  713.53   16.90
   1   3   3  716.93   18.20
   1   3   3  690.83   16.70
   1   3   3  705.83   16.00
   1   3   3  719.53   14.00
  -2  -3  -3 1331.17   30.00
  -2  -3  -3 1309.67   27.00
  -2  -3  -3 1290.97   26.60
  -2  -3  -3 1334.27   32.00
  -2  -3  -3 1353.36   30.40
   2   3   3 1354.56   26.90
   2   3   3 1380.16   32.50
   2   3   3 1357.46   30.40
   2   3   3 1300.27   28.20
  -3  -3  -3  390.76   15.30
  -3  -3  -3  390.26   14.50
  -3  -3  -3  379.56   12.00
  -3  -3  -3  379.06   16.50
   3   3   3  375.16   12.70
   3   3   3  377.56   13.00
   3   3   3  380.16   15.20
   3   3   3  410.56   14.50
   3   3   3  390.16   13.10
  -4  -3  -3  179.28   10.90
  -4  -3  -3  171.48    8.70
  -4  -3  -3  172.68   10.00
  -4  -3  -3  165.98   11.30
  -4  -3  -3  164.18    8.70
   4   3   3  159.18    9.90
   4   3   3  177.18    9.80
   4   3   3  160.18    9.30
   4   3   3  164.58   10.90
  -5  -3  -3  357.16   14.30
  -5  -3  -3  380.26   17.30
  -5  -3  -3  359.06   16.80
  -5  -3  -3  343.97   13.70
  -5  -3  -3  363.86   15.40
   5   3   3  354.76   14.70
   5   3   3  363.36   16.80
   5   3   3  346.47   15.00
   5   3   3  375.56   15.70
   5   3   3  344.67   14.80
  -6  -3  -3  982.90   32.10
  -6  -3  -3  968.90   29.40
  -6  -3  -3  989.10   28.30
  -6  -3  -3 1008.30   29.10
   6   3   3 1009.70   32.50
   6   3   3  994.10   30.00
   6   3   3  970.80   29.50
  -7  -3  -3  192.58   15.00
  -7  -3  -3  193.38   12.60
  -7  -3  -3  201.68   12.80
   7   3   3  249.38   19.20
   7   3   3  217.38   17.40
  -8  -3  -3  187.68   16.20
  -8  -3  -3  157.08   12.10
  -8  -3  -3  152.38   12.30
   8   3   3  194.58   15.80
   8   3   3  180.88   15.90
  -9  -3  -3    6.50    4.00
  -9  -3  -3    1.30    4.70
  -9  -3  -3    1.10    5.60
   9   3   3    2.30    5.40
   9   3   3    8.10    6.10
 -10  -3  -3   66.09   12.40
 -10  -3  -3   69.49    9.60
 -10  -3  -3   62.99    9.80
  10   3   3  102.49   13.90
  10   3   3   82.29   11.90
   9  -4  -3    6.50    5.50
   8  -4  -3  386.46   20.10
  -8   4   3  370.86   20.60
  -8   4   3  391.36   22.10
   7  -4  -3   38.40    9.30
  -7   4   3   26.50    7.70
  -7   4   3   40.90    7.30
   6  -4  -3   24.40    5.80
   6  -4  -3   19.30    5.10
  -6   4   3   27.00    6.20
  -6   4   3   29.40    6.40
   5  -4  -3   52.29    7.20
   5  -4  -3   56.09    6.30
   5  -4  -3   46.90    6.30
  -5   4   3   49.99    7.20
  -5   4   3   51.09    6.40
  -5   4   3   56.39    7.70
   4  -4  -3  894.41   24.10
   4  -4  -3  876.91   25.80
  -4   4   3  933.81   26.80
  -4   4   3  924.31   25.70
  -4   4   3  896.51   25.20
   3  -4  -3   20.90    3.80
   3  -4  -3   28.00    4.10
   3  -4  -3   21.10    4.40
  -3   4   3   30.90    4.60
  -3   4   3   31.10    4.50
  -3   4   3   29.40    4.50
   2  -4  -3 1303.07   27.40
   2  -4  -3 1333.67   26.80
   2  -4  -3 1309.27   29.50
   2  -4  -3 1351.96   25.20
  -2   4   3 1319.77   25.00
  -2   4   3 1304.97   28.40
  -2   4   3 1272.27   29.50
  -2   4   3 1300.77   28.50
   1  -4  -3    0.20    1.90
   1  -4  -3    1.60    2.10
  -1   4   3   -3.00    2.30
  -1   4   3    1.70    2.00
  -1   4   3    2.10    2.00
  -1   4   3   -0.40    1.80
   0  -4  -3    7.80    3.20
   0  -4  -3    2.70    2.70
   0   4   3    4.30    1.60
   0   4   3    2.40    2.40
   0   4   3    4.20    2.40
   0   4   3    4.40    3.70
   0   4   3    3.40    1.50
   0   4   3    3.60    1.70
  -1  -4  -3   37.80    4.70
  -1  -4  -3   28.00    5.10
  -1  -4  -3   37.60    4.70
   1   4   3   42.70    4.90
   1   4   3   41.30    6.80
   1   4   3   35.20    3.70
   1   4   3   44.60    3.30
   1   4   3   34.50    5.60
  -2  -4  -3 2449.05   49.80
  -2  -4  -3 2409.86   52.09
  -2  -4  -3 2376.96   42.20
  -2  -4  -3 2391.36   49.50
  -2  -4  -3 2372.46   42.60
   2   4   3 2380.26   48.70
   2   4   3 2441.86   45.70
   2   4   3 2420.56   49.50
   2   4   3 2418.86   45.50
   2   4   3 2411.66   51.19
   2   4   3 2274.07   45.40
  -3  -4  -3  125.09    6.00
  -3  -4  -3  121.29    6.10
  -3  -4  -3  108.39    8.60
  -3  -4  -3  127.89    9.40
  -3  -4  -3  116.39    9.50
   3   4   3  117.19    7.10
   3   4   3  119.39    7.40
   3   4   3  140.39   11.60
   3   4   3  120.49    7.20
   3   4   3  131.79    8.80
  -4  -4  -3  325.37   11.80
  -4  -4  -3  335.67   11.80
  -4  -4  -3  343.47   15.40
  -4  -4  -3  358.06   15.10
  -4  -4  -3  346.37   15.70
   4   4   3  322.07   16.70
   4   4   3  347.47   13.60
   4   4   3  340.57   15.80
   4   4   3  344.07   13.20
   4   4   3  333.57   13.20
  -5  -4  -3   15.30    5.10
  -5  -4  -3   14.80    3.90
  -5  -4  -3   25.10    4.70
  -5  -4  -3   15.20    4.60
  -5  -4  -3   22.50    5.60
   5   4   3   20.30    5.00
   5   4   3   18.80    6.10
   5   4   3   17.60    4.80
   5   4   3   18.00    4.20
   5   4   3   10.40    3.70
  -6  -4  -3   66.29    8.10
  -6  -4  -3   70.99    7.60
  -6  -4  -3   71.89    8.40
  -6  -4  -3   67.39    9.10
   6   4   3   57.39    7.80
   6   4   3   70.69    8.80
   6   4   3   55.39    8.00
  -7  -4  -3   13.50    5.30
  -7  -4  -3   11.50    4.40
  -7  -4  -3    4.80    6.60
   7   4   3   19.70    6.90
  -8  -4  -3  500.55   25.20
  -8  -4  -3  487.55   21.50
  -8  -4  -3  525.85   21.90
   8   4   3  464.35   23.90
   8   4   3  503.65   23.20
  -9  -4  -3    5.20    4.90
  -9  -4  -3    4.20    6.20
  -9  -4  -3   -3.90    5.00
   9   4   3    9.10    6.00
   9   4   3    2.20    6.50
 -10  -4  -3   52.19    9.60
 -10  -4  -3   45.10    7.60
  10   4   3   32.20    8.40
  10   4   3   37.60    9.50
   9  -5  -3    0.40    5.20
  -9   5   3   -5.30    6.20
  -9   5   3    3.50    5.60
   8  -5  -3   38.50    7.90
  -8   5   3   33.10    8.10
  -8   5   3   37.90    8.30
   7  -5  -3  202.58   13.20
  -7   5   3  217.38   15.70
  -7   5   3  226.28   15.30
   6  -5  -3   66.69    8.10
   6  -5  -3   63.29    8.20
  -6   5   3   57.89    8.70
  -6   5   3   51.79    8.30
   5  -5  -3  497.05   23.70
   5  -5  -3  503.95   17.30
   5  -5  -3  516.15   17.90
  -5   5   3  492.75   19.10
  -5   5   3  487.05   20.40
  -5   5   3  524.45   22.70
   4  -5  -3   11.20    3.80
   4  -5  -3    9.30    3.30
   4  -5  -3    9.00    4.20
  -4   5   3    7.00    3.40
  -4   5   3   11.60    4.30
  -4   5   3    3.20    3.90
   3  -5  -3   12.50    3.20
   3  -5  -3   19.10    3.10
   3  -5  -3   13.90    3.70
  -3   5   3   16.60    3.30
  -3   5   3   13.60    1.60
  -3   5   3   19.10    3.70
   2  -5  -3   74.79    6.70
   2  -5  -3   87.29    4.70
   2  -5  -3   81.79    3.20
   2  -5  -3   77.49    3.40
  -2   5   3   78.39    5.60
  -2   5   3   81.19    7.00
  -2   5   3   74.39    5.50
  -2   5   3   86.69    7.50
  -2   5   3   84.59    4.80
   1  -5  -3  907.01   21.40
  -1   5   3  962.60   23.90
  -1   5   3  969.30   23.60
  -1   5   3  916.61   19.70
  -1   5   3  903.51   22.00
   0  -5  -3  330.37   11.60
   0  -5  -3  301.37   12.60
   0   5   3  341.97   11.70
   0   5   3  332.27   11.70
   0   5   3  331.57    7.80
   0   5   3  328.07   10.20
   0   5   3  321.87   14.80
  -1  -5  -3   53.79    6.70
  -1  -5  -3   57.99    6.50
  -1  -5  -3   60.39    6.20
   1   5   3   56.99    5.50
   1   5   3   57.29    7.30
   1   5   3   60.49    3.80
   1   5   3   60.79    3.10
   1   5   3   57.09    4.60
   1   5   3   65.49    6.00
  -2  -5  -3    3.30    3.50
  -2  -5  -3    1.40    3.20
  -2  -5  -3    6.50    4.10
   2   5   3   -0.40    1.80
   2   5   3    0.10    3.00
   2   5   3   -0.10    2.80
   2   5   3   -0.10    1.90
   2   5   3    8.00    3.90
  -3  -5  -3   77.39    7.80
  -3  -5  -3   74.99    7.80
  -3  -5  -3   73.59    3.10
  -3  -5  -3   75.49    3.40
  -3  -5  -3   75.49    7.50
   3   5   3   74.59    6.30
   3   5   3   77.09    5.80
   3   5   3   67.39    5.70
   3   5   3   71.39    8.20
   3   5   3   81.49    8.50
  -4  -5  -3  202.68    8.00
  -4  -5  -3  188.68   11.60
  -4  -5  -3  209.58   12.00
  -4  -5  -3  196.18   13.10
  -4  -5  -3  196.18    7.90
   4   5   3  210.68   10.20
   4   5   3  202.38   10.50
   4   5   3  208.88   11.40
   4   5   3  206.08   12.20
   4   5   3  198.28   10.30
  -5  -5  -3  921.21   23.50
  -5  -5  -3  928.91   28.40
  -5  -5  -3  884.61   23.00
  -5  -5  -3  899.41   28.80
  -5  -5  -3  939.81   30.30
   5   5   3  892.41   25.80
   5   5   3  883.61   26.50
   5   5   3  901.31   28.80
   5   5   3  921.71   26.30
  -6  -5  -3   31.80    6.40
  -6  -5  -3   42.90    5.70
  -6  -5  -3   44.30    5.80
  -6  -5  -3   27.90    5.90
   6   5   3   27.40    5.60
   6   5   3   30.20    6.70
   6   5   3   35.30    6.40
  -7  -5  -3  108.49   13.00
  -7  -5  -3  121.49   11.10
  -7  -5  -3  127.29    9.70
  -7  -5  -3  124.99   10.00
   7   5   3  134.19   16.30
  -8  -5  -3    2.30    4.40
  -8  -5  -3    3.50    4.00
  -8  -5  -3   -5.70    6.20
   8   5   3    3.20    4.60
   8   5   3   -2.20    5.90
  -9  -5  -3   23.50    8.10
  -9  -5  -3   22.90    6.10
  -9  -5  -3   40.00    7.60
   9   5   3   37.20    9.30
   9   5   3   30.40    8.40
   9  -6  -3  368.06   19.40
  -9   6   3  351.86   23.20
  -9   6   3  315.17   20.30
   8  -6  -3   87.79    9.80
  -8   6   3   99.09   12.00
  -8   6   3   84.79   11.70
   7  -6  -3  117.09   10.70
  -7   6   3  102.69   10.80
  -7   6   3  114.09   13.00
   6  -6  -3   12.80    4.80
   6  -6  -3    8.30    4.80
  -6   6   3   13.80    4.70
   5  -6  -3  365.86   14.00
   5  -6  -3  405.96   14.90
  -5   6   3  379.06   17.10
  -5   6   3  403.06   18.70
   4  -6  -3  162.28   11.30
   4  -6  -3  191.38    8.10
  -4   6   3  171.18   10.50
  -4   6   3  170.08    4.40
  -4   6   3  177.78   12.10
   3  -6  -3 1858.81   34.50
   3  -6  -3 1852.61   42.90
   3  -6  -3 1826.22   35.30
  -3   6   3 1763.22   39.40
  -3   6   3 1803.42   44.40
  -3   6   3 1894.71   43.30
  -3   6   3 1897.71   40.40
  -3   6   3 1857.61   35.40
   2  -6  -3  360.16   11.20
   2  -6  -3  357.66   14.10
  -2   6   3  366.46   13.00
  -2   6   3  353.36   14.00
  -2   6   3  380.56   15.20
  -2   6   3  365.26   11.70
  -2   6   3  355.56   11.60
   1  -6  -3  645.44   17.90
   1  -6  -3  665.33   19.10
  -1   6   3  682.33   18.80
  -1   6   3  673.23   18.00
  -1   6   3  646.54   14.80
  -1   6   3  624.14   19.60
  -1   6   3  657.03   15.00
   0  -6  -3    8.30    3.00
   0  -6  -3    7.40    3.60
   0   6   3    5.90    2.50
   0   6   3    5.10    3.30
   0   6   3    8.70    1.10
   0   6   3    4.90    4.50
   0   6   3    9.20    1.20
   0   6   3    5.90    3.30
  -1  -6  -3  439.06   16.90
  -1  -6  -3  431.16   15.50
   1   6   3  447.56   15.50
   1   6   3  447.36   18.20
   1   6   3  408.56   13.20
   1   6   3  440.66   10.40
   1   6   3  451.25    9.40
   1   6   3  454.45   15.90
  -2  -6  -3  458.45   16.70
  -2  -6  -3  430.46   17.20
  -2  -6  -3  426.26   17.70
   2   6   3  439.36   11.70
   2   6   3  434.26   16.30
   2   6   3  445.26   16.90
   2   6   3  432.56   11.40
  -3  -6  -3 2152.78   50.09
  -3  -6  -3 2090.09   50.29
  -3  -6  -3 2153.78   48.80
   3   6   3 2151.98   48.90
   3   6   3 2144.89   43.00
   3   6   3 2095.49   53.49
   3   6   3 2122.59   48.60
   3   6   3 2091.89   42.90
  -4  -6  -3   95.59    9.00
  -4  -6  -3   93.39    9.80
   4   6   3   89.79    7.10
   4   6   3   89.59    7.50
   4   6   3   92.59    8.70
   4   6   3   95.89    7.10
  -5  -6  -3   58.89    8.00
  -5  -6  -3   56.99    7.50
  -5  -6  -3   49.99    4.70
  -5  -6  -3   57.99    8.60
   5   6   3   51.59    7.10
   5   6   3   56.39    6.90
   5   6   3   66.69    8.90
   5   6   3   52.39    7.40
  -6  -6  -3   24.00    5.80
  -6  -6  -3   27.20    4.70
  -6  -6  -3   16.60    6.50
  -6  -6  -3   22.90    4.70
   6   6   3   22.70    6.60
   6   6   3   13.70    5.60
  -7  -6  -3  404.06   15.80
  -7  -6  -3  399.46   22.30
  -7  -6  -3  438.56   16.60
  -7  -6  -3  417.26   20.40
   7   6   3  438.56   22.40
  -8  -6  -3  104.69    9.60
  -8  -6  -3  101.89   11.30
  -8  -6  -3  114.39   13.60
   8   6   3   92.89   12.00
   8   6   3  112.69   12.70
  -9  -6  -3  333.67   22.80
  -9  -6  -3  321.97   22.40
   9   6   3  351.56   21.30
   9   6   3  351.66   20.80
   9  -7  -3    1.40    6.10
  -9   7   3   10.70    6.40
  -9   7   3   -8.10    6.30
   8  -7  -3   85.89   10.20
  -8   7   3  113.89   14.20
  -8   7   3  148.39   13.60
   7  -7  -3  118.39   10.90
   7  -7  -3  153.18   10.50
  -7   7   3  171.38   15.60
  -7   7   3  152.48   12.90
   6  -7  -3  354.36   14.60
   6  -7  -3  342.67   14.60
  -6   7   3  375.46   19.90
  -6   7   3  350.96   18.30
   5  -7  -3  327.67   12.20
  -5   7   3  324.67   15.90
  -5   7   3  340.87   18.30
   4  -7  -3    3.50    3.70
   4  -7  -3    4.00    1.90
   4  -7  -3    3.70    2.10
  -4   7   3   -0.60    1.40
  -4   7   3    0.10    2.70
  -4   7   3   -0.80    3.80
  -4   7   3    6.10    3.80
  -4   7   3   -1.20    3.40
   3  -7  -3   81.39    9.80
  -3   7   3   88.29    6.70
  -3   7   3   86.39    6.80
  -3   7   3   71.99    5.90
  -3   7   3   77.69    8.40
  -3   7   3   94.39    9.20
   2  -7  -3  428.96   16.80
  -2   7   3  430.06   12.90
  -2   7   3  443.16   16.50
  -2   7   3  449.95   17.60
  -2   7   3  438.26   13.10
  -2   7   3  458.45   14.00
   1  -7  -3  661.63   19.30
  -1   7   3  679.93   19.30
  -1   7   3  661.53   14.90
  -1   7   3  631.24   20.90
  -1   7   3  688.93   20.10
  -1   7   3  660.13   14.80
   0  -7  -3 1158.18   29.10
   0  -7  -3 1115.09   32.90
   0   7   3 1167.48   28.10
   0   7   3 1202.08   34.70
   0   7   3 1119.49   29.90
   0   7   3 1163.88   29.00
  -1  -7  -3  125.09    9.00
  -1  -7  -3  106.09    9.90
   1   7   3  110.59    8.50
   1   7   3  110.49    9.20
   1   7   3  117.79    7.40
   1   7   3  107.89    9.40
  -2  -7  -3   17.10    5.00
  -2  -7  -3   26.50    5.70
  -2  -7  -3   14.20    4.00
   2   7   3   19.70    4.50
   2   7   3   15.90    7.80
   2   7   3   21.20    2.50
   2   7   3   17.70    4.40
   2   7   3   19.20    2.50
  -3  -7  -3   38.10    7.00
  -3  -7  -3   39.40    6.80
  -3  -7  -3   35.40    6.20
   3   7   3   30.60    5.70
   3   7   3   30.90    3.90
   3   7   3   38.50    4.10
   3   7   3   44.40    6.80
  -4  -7  -3  342.27   16.60
  -4  -7  -3  346.67   18.00
  -4  -7  -3  344.47   17.40
   4   7   3  335.37   13.00
   4   7   3  341.37   16.10
   4   7   3  355.66   15.20
   4   7   3  341.87   13.30
  -5  -7  -3  250.77   18.30
  -5  -7  -3  241.88   16.80
  -5  -7  -3  235.38   14.80
   5   7   3  218.28   14.40
   5   7   3  235.68   13.70
   5   7   3  212.68   11.80
   5   7   3  213.08   11.40
  -6  -7  -3  225.68   15.80
  -6  -7  -3  238.08   10.50
  -6  -7  -3  222.18   16.90
  -6  -7  -3  244.78    9.00
   6   7   3  265.97   16.10
   6   7   3  244.78   13.70
  -7  -7  -3    8.80    3.80
  -7  -7  -3    6.00    4.80
  -7  -7  -3    8.60    3.50
  -7  -7  -3   12.50    6.10
   7   7   3   12.90    6.30
   7   7   3   12.60    5.10
  -8  -7  -3   24.00    7.20
  -8  -7  -3   16.30    4.80
  -8  -7  -3   19.20    8.20
   8   7   3   12.70    6.30
   8   7   3   21.80    7.30
  -9  -7  -3    3.30    6.00
  -9  -7  -3   13.60    4.90
  -9  -7  -3   -6.90    6.60
   9   7   3    7.60    6.50
   8  -8  -3   27.20    6.60
  -8   8   3   29.60    9.20
  -8   8   3   43.40    8.90
   7  -8  -3    8.60    5.50
   7  -8  -3   -3.60    4.00
  -7   8   3    6.00    4.50
  -7   8   3    7.60    5.30
   6  -8  -3  113.79    7.60
  -6   8   3  117.59   12.60
   5  -8  -3  113.39    5.60
   5  -8  -3  109.29    5.30
  -5   8   3   98.49    3.90
  -5   8   3  108.79   12.70
  -5   8   3  126.19   10.30
  -4   8   3  276.27   12.90
  -4   8   3  280.97   13.40
  -4   8   3  287.27   16.20
   3  -8  -3  379.16   17.50
  -3   8   3  363.86   12.50
  -3   8   3  370.76   13.90
  -3   8   3  378.46   17.60
  -3   8   3  375.66   18.30
  -3   8   3  359.36   13.50
   2  -8  -3    4.30    3.90
  -2   8   3    0.60    3.70
  -2   8   3    2.40    3.20
  -2   8   3   -2.90    2.20
  -2   8   3   -1.30    2.20
  -2   8   3    1.20    2.00
   1  -8  -3   23.20    4.10
  -1   8   3   19.90    4.60
  -1   8   3   18.90    2.40
  -1   8   3   19.30    2.50
  -1   8   3   23.30    4.20
  -1   8   3   20.50    8.00
  -1   8   3   22.70    5.30
   0  -8  -3  711.83   22.10
   0  -8  -3  687.03   25.70
   0   8   3  733.83   26.70
  -1  -8  -3  161.88   10.30
  -1  -8  -3  149.69   12.70
   1   8   3  157.98   11.20
   1   8   3  161.58   11.40
   1   8   3  168.58   10.90
   1   8   3  156.18   10.60
  -2  -8  -3  542.35   22.40
  -2  -8  -3  568.54   21.20
   2   8   3  554.04   21.00
   2   8   3  591.74   21.30
   2   8   3  529.05   13.00
   2   8   3  533.85   18.80
   2   8   3  550.84   13.20
  -3  -8  -3  439.96   21.00
  -3  -8  -3  437.46   19.10
  -3  -8  -3  407.56   22.40
   3   8   3  431.96   13.20
   3   8   3  436.16   13.40
   3   8   3  462.25   19.20
  -4  -8  -3   -1.40    5.10
  -4  -8  -3   -7.70    3.60
  -4  -8  -3    3.30    5.10
   4   8   3   -2.10    2.40
   4   8   3   -4.20    3.60
   4   8   3   -0.30    2.80
  -5  -8  -3   15.20    6.80
  -5  -8  -3    7.70    4.30
   5   8   3   19.90    4.60
   5   8   3   20.00    4.80
   5   8   3   14.20    4.90
  -6  -8  -3  165.48   14.90
  -6  -8  -3  170.58   13.90
   6   8   3  161.68   13.40
   6   8   3  178.08   11.70
  -7  -8  -3  117.29   13.70
  -7  -8  -3  117.19   12.90
   7   8   3  136.39   12.20
   7   8   3  105.29   12.70
  -8  -8  -3  141.29   13.50
  -8  -8  -3  154.98   15.80
   8   8   3  126.99   13.80
   8   8   3  147.89   12.80
  -7   9   3  413.36   23.50
  -7   9   3  412.06   21.00
  -6   9   3   10.30    5.70
  -6   9   3   14.40    6.00
  -5   9   3  121.79   13.10
  -5   9   3  105.09    5.40
  -5   9   3  111.49   10.10
  -4   9   3   -0.70    4.90
  -4   9   3   -0.20    2.30
  -4   9   3   -0.30    3.30
  -4   9   3   -3.40    3.20
  -3   9   3  388.86   14.30
  -3   9   3  402.76   14.50
  -3   9   3  419.76   19.30
  -3   9   3  387.06   14.00
   2  -9  -3   66.29    7.80
  -2   9   3   66.59    8.30
  -2   9   3   70.19    5.20
  -2   9   3   63.29    5.10
  -2   9   3   71.99    6.90
  -2   9   3   74.49   10.90
   1  -9  -3 1294.87   34.10
  -1   9   3 1370.86   27.20
  -1   9   3 1387.86   27.20
  -1   9   3 1331.67   34.20
  -1   9   3 1419.36   41.00
  -1   9   3 1350.26   37.80
  -1   9   3 1430.96   36.50
   0  -9  -3  103.59    9.20
   0  -9  -3   96.59   11.40
   0   9   3   98.69   10.20
   0   9   3   95.19    8.70
   0   9   3   82.39    7.70
   0   9   3  104.69    8.50
  -1  -9  -3   91.89   11.70
  -1  -9  -3  122.09   10.60
   1   9   3  106.29   10.50
   1   9   3  109.69    8.80
  -2  -9  -3    5.20    4.60
  -2  -9  -3   22.10    6.30
   2   9   3   11.50    2.20
   2   9   3   12.30    3.80
   2   9   3    6.10    3.80
   2   9   3   15.70    2.40
  -3  -9  -3  801.02   27.70
  -3  -9  -3  817.12   30.40
   3   9   3  780.02   19.80
   3   9   3  831.62   27.30
   3   9   3  760.22   19.50
  -4  -9  -3  214.78   15.40
  -4  -9  -3  242.08   16.60
  -4  -9  -3  236.18   15.30
   4   9   3  243.78   14.40
   4   9   3  233.18   11.30
   4   9   3  233.58   10.50
  -5  -9  -3  784.52   29.80
  -5  -9  -3  800.52   32.00
   5   9   3  743.13   23.70
   5   9   3  731.03   23.40
   5   9   3  827.02   28.00
  -6  -9  -3   50.59    9.50
  -6  -9  -3   42.80    8.80
   6   9   3   35.30    6.60
   6   9   3   40.80    7.80
  -7  -9  -3   40.50    8.40
   7   9   3   31.60    7.70
   7   9   3   24.80    6.00
  -8  -9  -3    9.50    5.90
  -8  -9  -3    5.20    7.00
   8   9   3    3.40    4.90
   8   9   3   -2.50    5.30
  -7  10   3    6.30    7.50
  -7  10   3   -2.00    5.10
  -6  10   3    6.80    6.40
  -6  10   3   16.30    6.40
  -5  10   3  287.37   17.70
  -5  10   3  264.67    9.80
  -5  10   3  304.27   15.80
  -4  10   3   32.40    4.40
  -4  10   3   43.00    7.30
  -4  10   3   34.60    6.60
  -4  10   3   35.30    6.70
  -3  10   3  330.47   13.80
  -3  10   3  296.87   12.50
  -3  10   3  324.07   17.00
  -2  10   3    2.80    4.20
  -2  10   3    2.90    2.40
  -2  10   3    4.20    2.40
  -2  10   3   -0.20    2.90
  -1  10   3   51.59    3.70
  -1  10   3   46.50    6.90
  -1  10   3   48.70    8.30
  -1  10   3   48.20    3.60
   0 -10  -3  102.79   10.20
   0 -10  -3   89.59   12.60
   0  10   3   86.29   10.90
   0  10   3   95.59    9.20
  -1 -10  -3  379.66   22.00
  -1 -10  -3  346.97   16.90
   1  10   3  343.97   17.70
   1  10   3  340.07   15.90
  -2 -10  -3  116.09   11.30
   2  10   3  125.09   10.20
   2  10   3  132.39    5.30
   2  10   3  125.89    5.20
   2  10   3  130.09   10.80
  -3 -10  -3  249.08   16.10
  -3 -10  -3  227.78   18.10
   3  10   3  242.68    9.50
   3  10   3  271.07   15.20
   3  10   3  262.27    9.80
   3  10   3  256.57   14.50
  -4 -10  -3   14.10    6.00
  -4 -10  -3    7.60    6.00
   4  10   3    0.10    2.60
   4  10   3   -2.90    3.60
  -5 -10  -3   67.99   11.10
  -5 -10  -3   47.20    8.80
   5  10   3   52.89    8.40
   5  10   3   57.19    6.80
  -6 -10  -3   41.20   10.30
  -6 -10  -3   48.40   11.30
   6  10   3   52.69    8.80
   6  10   3   58.99    8.10
  -7 -10  -3  136.79   15.10
  -7 -10  -3  101.89   14.00
   7  10   3  111.09   13.10
   7  10   3  103.59   11.00
  -6  11   3  131.19   15.20
  -6  11   3  125.99   12.30
  -5  11   3   -3.50    4.20
  -5  11   3   -4.60    3.90
  -4  11   3   39.70    7.90
  -4  11   3   70.19    7.10
  -3  11   3    5.60    3.60
  -3  11   3    3.60    3.60
  -3  11   3    9.10    5.40
  -2  11   3  377.26   12.50
  -2  11   3  401.86   22.80
  -2  11   3  372.96   12.60
  -2  11   3  384.76   18.90
  -1  11   3   -5.60    3.50
  -1  11   3   -5.90    3.50
  -1  11   3   -1.90    1.30
   0 -11  -3  156.28   15.30
   0  11   3  182.78   12.10
   0  11   3  189.68   14.60
  -1 -11  -3    0.00    4.10
  -1 -11  -3   -4.20    4.80
   1  11   3    3.90    4.30
   1  11   3   -1.10    3.40
  -2 -11  -3  116.79   14.50
  -2 -11  -3  131.49   12.70
   2  11   3   97.19    4.80
   2  11   3  108.29    5.00
   2  11   3  107.99   10.00
   2  11   3   91.89    9.50
  -3 -11  -3   -0.80    4.70
  -3 -11  -3    5.90    5.10
   3  11   3    8.90    2.30
   3  11   3   -2.60    3.60
   3  11   3    2.90    2.70
  -4 -11  -3  264.57   17.50
  -4 -11  -3  260.37   20.40
   4  11   3  241.38   14.90
  -5 -11  -3   19.80    6.20
  -5 -11  -3    6.70    7.40
   5  11   3   14.60    4.30
   5  11   3    0.00    4.40
  -6 -11  -3   57.29    9.40
  -6 -11  -3   49.30   10.50
   6  11   3   32.80    7.20
   6  11   3   64.39    8.00
  -5  12   3  167.18   16.30
  -4  12   3  112.59    8.90
  -4  12   3  127.09   13.60
  -3  12   3   77.59   10.50
  -3  12   3   78.29    7.30
  -2  12   3    2.80    2.70
  -2  12   3   -7.70    4.10
  -2  12   3    1.50    2.40
  -2  12   3   -6.10    5.20
  -1  12   3   66.79    4.30
  -1  12   3   64.69    4.20
  -1  12   3   66.79    9.30
  -1  12   3   54.29    9.70
   0  12   3  308.97   18.40
   0  12   3  300.77   16.90
  -1 -12  -3  188.78   14.90
  -1 -12  -3  199.48   17.90
   1  12   3  204.58   13.40
   1  12   3  187.18   13.70
  -2 -12  -3  151.48   15.90
  -2 -12  -3  125.59   12.50
   2  12   3  147.29    5.70
   2  12   3  138.69   13.70
   2  12   3  136.19   11.40
  -3 -12  -3   51.39   11.20
  -3 -12  -3   38.50    8.00
   3  12   3   30.10    6.30
   3  12   3   35.10    4.40
   3  12   3   33.60    6.30
  -4 -12  -3   14.80    6.00
  -4 -12  -3   13.60    9.00
   4  12   3    3.00    5.00
   4  12   3   20.80    4.70
  -5 -12  -3   71.69   12.20
   5  12   3   69.99   15.40
   5  12   3   63.39    7.30
  -3  13   3  230.38   19.00
  -3  13   3  237.68   17.10
  -2  13   3    0.90    6.80
  -2  13   3   23.90    7.00
  -1  13   3  111.89   12.80
  -1  13   3  100.79   11.90
   0  13   3   10.50   10.30
  -1 -13  -3   26.50   10.10
   1  13   3    4.10    4.60
   1  13   3   19.50    6.00
  -2 -13  -3   -8.30    7.70
   2  13   3    0.60    5.20
   2  13   3   -2.80    4.10
  -3 -13  -3  227.08   17.80
  -3 -13  -3  245.88   21.80
   3  13   3  214.38   14.10
   3  13   3  196.98   14.80
   2  12  -4   34.90   10.20
   2  12  -4   42.50   11.30
   1  12  -4   20.10    6.00
   1  12  -4   13.90    8.00
   0  12  -4   -5.30    7.20
   0  12  -4   -1.10    4.50
  -1  12  -4    8.20    6.70
  -1  12  -4   15.40    7.00
  -2  12  -4  117.89   17.50
  -2  12  -4   98.39   10.50
   4  11  -4   -1.00    5.20
   3  11  -4    8.70    6.70
   3  11  -4   16.20    6.70
  -3 -11   4   -1.10    7.50
   2  11  -4  188.48   18.80
   2  11  -4  193.78   14.60
  -2 -11   4  185.68   18.60
   1  11  -4   27.40    6.60
   0  11  -4  269.97   15.90
   0  11  -4  289.27   21.90
  -1  11  -4    3.00    4.30
  -1  11  -4   -0.70    6.20
  -2  11  -4    4.40    2.90
  -2  11  -4   -0.50    6.20
  -2  11  -4    1.40    4.20
  -3  11  -4    1.50    5.30
  -3  11  -4    8.40    8.30
  -4  11  -4  157.18   18.00
  -4  11  -4  134.69   11.90
   5  10  -4   71.09   10.10
  -5 -10   4   82.69   13.20
  -4 -10   4   91.19   14.10
   3  10  -4  246.38   14.70
  -3 -10   4  211.38   18.80
   2  10  -4   16.10    7.80
   2  10  -4   13.20    6.30
  -2 -10   4    7.00    6.60
   1  10  -4   -6.50    6.20
   1  10  -4   -0.70    4.50
  -1 -10   4    1.30    6.80
   0  10  -4  123.39   10.60
   0  10  -4   89.09   12.60
  -1  10  -4  154.78   12.10
  -2  10  -4  128.49   14.90
  -2  10  -4  123.29   10.90
  -2  10  -4  113.39    7.40
  -3  10  -4  120.89   15.40
  -3  10  -4  130.79   11.80
  -3  10  -4  122.59    9.40
  -4  10  -4   15.30    5.30
  -5  10  -4    6.40    6.70
  -5  10  -4    7.40    4.60
  -6  10  -4   96.99   12.20
   6   9  -4   17.50    6.40
  -6  -9   4    5.80    7.10
   5   9  -4   99.99   11.40
  -4  -9   4   -0.30    5.40
   3   9  -4   61.79    8.50
  -3  -9   4   66.49   11.30
   2   9  -4   33.50    9.30
   2   9  -4   51.89    7.20
  -2  -9   4   37.20    9.10
   1   9  -4  354.76   22.60
   1   9  -4  396.26   18.40
  -1  -9   4  408.06   24.20
   0   9  -4   61.59    7.60
   0   9  -4   61.69   11.20
  -1   9  -4   94.79    4.80
  -1   9  -4  100.39    9.50
  -1   9  -4   86.09    4.30
  -1   9  -4   90.19   12.90
  -2   9  -4   -2.40    2.90
  -2   9  -4    1.90    2.90
  -2   9  -4    3.10    5.80
  -3   9  -4  110.19    9.90
  -3   9  -4   98.99    8.50
  -3   9  -4  122.49   14.30
  -4   9  -4   63.19    8.10
  -4   9  -4   85.29   12.60
   4  -9   4   75.99    4.70
   4  -9   4   70.69    5.10
  -5   9  -4  279.07   16.40
  -5   9  -4  278.97   20.50
   5  -9   4  276.07   11.90
  -6   9  -4   32.50    8.10
  -6   9  -4   14.80    8.40
   6  -9   4   17.30    5.20
   7  -9   4   12.50    6.00
   7   8  -4  -10.40    5.80
  -7  -8   4   -1.50    5.40
  -7  -8   4   -1.50    5.10
   6   8  -4  156.68   13.20
  -6  -8   4  200.58   21.70
  -6  -8   4  169.68   10.30
   5   8  -4    8.00    5.60
  -5  -8   4   16.00    4.20
  -5  -8   4   28.20    8.00
   4   8  -4  269.47   15.60
  -4  -8   4  267.37   18.90
  -4  -8   4  271.97    9.70
  -3  -8   4   77.29   11.40
  -3  -8   4   97.89    4.20
  -3  -8   4  105.29    4.40
   2   8  -4   36.60    6.50
  -2  -8   4   51.49    9.50
   1   8  -4   11.40    3.80
   1   8  -4    5.80    5.90
   1   8  -4    6.60    4.80
  -1  -8   4    6.50    6.70
   0   8  -4  503.95   19.20
   0   8  -4  475.85   24.40
   0   8  -4  523.85   20.50
  -1   8  -4   20.40    7.30
  -1   8  -4   29.90    5.30
  -1   8  -4   31.30    6.10
  -1   8  -4   25.40    2.90
  -2   8  -4  389.46   21.60
  -2   8  -4  357.06   13.20
  -2   8  -4  366.26   17.10
   2  -8   4  387.56    9.90
   2  -8   4  387.86    9.90
  -3   8  -4   30.00    5.10
  -3   8  -4   38.70    6.90
  -3   8  -4   38.70    8.40
   3  -8   4   33.80    4.10
  -4   8  -4   30.90    7.60
  -4   8  -4   27.20    6.10
  -4   8  -4   45.70    7.50
   4  -8   4   40.50    5.20
  -5   8  -4    4.20    5.50
   5  -8   4   -1.20    3.60
   5  -8   4   -2.50    3.60
  -6   8  -4  188.38   14.90
  -6   8  -4  240.08   18.90
   6  -8   4  231.48   12.60
   6  -8   4  210.48   14.20
  -7   8  -4   49.50   10.30
  -7   8  -4   53.29   10.70
   8   7  -4  183.68   16.60
  -8  -7   4  213.38   21.60
  -8  -7   4  185.98   14.00
   7   7  -4   43.50    9.10
  -7  -7   4   24.70    6.50
   6   7  -4  126.69   12.30
  -6  -7   4  121.59   10.20
  -6  -7   4  109.29    8.30
  -6  -7   4  117.09   13.30
  -6  -7   4  101.89    9.10
  -5  -7   4   18.20    4.30
  -5  -7   4   17.70    3.00
  -5  -7   4   16.00    6.80
  -5  -7   4   25.70    5.50
   4   7  -4  175.28   12.70
  -4  -7   4  189.48   15.20
  -4  -7   4  163.38    9.00
   3   7  -4   17.10    5.00
  -3  -7   4   12.20    3.40
  -3  -7   4   16.50    6.80
  -3  -7   4   13.90    3.60
   2   7  -4  555.14   21.60
   2   7  -4  613.14   21.40
  -2  -7   4  597.44   26.00
  -2  -7   4  617.54   15.60
  -2  -7   4  610.64   15.80
   1   7  -4  253.97   14.00
   1   7  -4  244.78   13.10
   1   7  -4  235.98   16.80
  -1  -7   4  237.38    8.10
  -1  -7   4  232.08   16.30
  -1  -7   4  243.28    8.10
   0   7  -4  126.49   12.30
   0   7  -4  129.99    9.70
   0  -7   4  128.39    5.70
   0  -7   4  125.99    5.80
   0  -7   4  104.79   12.50
  -1   7  -4   47.60    3.80
  -1   7  -4   43.90    6.20
  -1   7  -4   54.19    7.70
  -1   7  -4   46.50    8.00
   1  -7   4   52.29    4.30
   1  -7   4   39.80    4.10
  -2   7  -4  610.74   20.80
  -2   7  -4  591.74   17.70
  -2   7  -4  587.04   25.60
  -2   7  -4  612.54   22.00
   2  -7   4  574.64   16.90
   2  -7   4  600.04   16.30
  -3   7  -4    4.60    4.50
  -3   7  -4    3.70    5.80
  -3   7  -4    4.30    3.70
   3  -7   4    2.00    3.50
  -4   7  -4  360.86   17.00
  -4   7  -4  360.86   20.70
  -4   7  -4  368.16   17.20
   4  -7   4  372.56   14.60
   4  -7   4  397.66   15.90
  -5   7  -4  144.99   15.10
   5  -7   4  138.29    9.90
  -6   7  -4   13.30    6.20
  -6   7  -4    3.40    4.50
   6  -7   4   -0.60    3.90
  -7   7  -4   16.00    6.60
  -7   7  -4   21.70    8.30
   7  -7   4    6.20    5.30
  -8   7  -4  136.09   16.20
  -8   7  -4  142.39   14.00
   8  -7   4  115.69   11.90
   8   6  -4   18.40    7.70
  -8  -6   4   -2.50    5.40
  -8  -6   4    3.50    6.80
   7   6  -4    7.40    5.80
  -7  -6   4   -1.40    5.50
  -7  -6   4    1.30    6.10
  -7  -6   4    4.00    6.20
   6   6  -4   40.80    7.90
  -6  -6   4   38.10    6.20
  -6  -6   4   36.40    9.00
  -6  -6   4   32.60    7.10
  -6  -6   4   49.50    7.80
   5   6  -4  601.84   23.90
  -5  -6   4  599.84   21.60
  -5  -6   4  600.74   17.80
  -5  -6   4  587.34   25.90
   4   6  -4  166.38   11.60
  -4  -6   4  179.68   10.70
  -4  -6   4  148.69    9.20
  -4  -6   4  149.29   13.40
  -4  -6   4  154.48    6.40
   3   6  -4  441.16   18.90
   3   6  -4  496.85   19.20
  -3  -6   4  482.05   21.90
  -3  -6   4  475.35   15.60
   2   6  -4   -0.90    3.10
  -2  -6   4    4.90    2.80
  -2  -6   4    6.00    4.60
  -2  -6   4    0.80    2.70
   1   6  -4   86.49    8.10
   1   6  -4  100.79    8.70
  -1  -6   4   88.99    5.90
  -1  -6   4   96.99   10.50
  -1  -6   4   84.49    6.00
   0   6  -4  293.97   17.10
   0   6  -4  288.77   13.10
   0   6  -4  296.87   14.10
   0   6  -4  291.27   17.10
   0   6  -4  275.87   16.30
   0  -6   4  307.37   10.60
   0  -6   4  310.57   17.70
  -1   6  -4  845.52   19.40
  -1   6  -4  863.31   24.60
  -1   6  -4  813.32   25.80
  -1   6  -4  860.21   30.10
   1  -6   4  859.01   21.60
   1  -6   4  864.31   21.20
  -2   6  -4  344.57   18.50
  -2   6  -4  331.27   12.10
  -2   6  -4  335.67   14.60
  -2   6  -4  331.27   15.20
   2  -6   4  335.47   13.00
   2  -6   4  319.07   12.00
  -3   6  -4  286.97   14.00
  -3   6  -4  301.17   13.40
  -3   6  -4  301.57   17.50
  -3   6  -4  298.77   15.10
   3  -6   4  318.47   12.70
   3  -6   4  296.47   13.40
  -4   6  -4   17.00    5.10
  -4   6  -4   15.70    5.60
  -4   6  -4   12.00    4.70
   4  -6   4   12.50    4.20
   4  -6   4   20.60    5.10
  -5   6  -4  219.38   16.30
  -5   6  -4  230.68   14.80
   5  -6   4  220.78   12.90
   5  -6   4  248.58   12.90
  -6   6  -4   64.59    9.60
  -6   6  -4   48.90    9.10
   6  -6   4   71.39    8.80
  -7   6  -4  239.18   17.00
  -7   6  -4  252.07   19.00
  -8   6  -4   30.80    9.10
  -8   6  -4   33.10    9.70
   8  -6   4   31.90    6.80
  -9   6  -4   11.80    5.90
   9  -6   4   27.40    7.70
  -9  -5   4  194.38   18.00
  -9  -5   4  146.79   14.00
   8   5  -4   82.79   12.30
  -8  -5   4  111.89   13.10
  -8  -5   4  108.39   11.80
   7   5  -4  181.88   15.50
  -7  -5   4  164.08   15.50
  -7  -5   4  146.99   12.20
  -7  -5   4  149.99   12.00
   6   5  -4   -3.50    5.20
  -6  -5   4    8.80    5.10
  -6  -5   4    2.60    4.50
  -6  -5   4   10.90    5.40
   5   5  -4   44.00    7.80
  -5  -5   4   51.19    8.30
  -5  -5   4   31.30    4.80
  -5  -5   4   44.20    6.90
  -5  -5   4   41.60    6.50
   4   5  -4  195.98   12.10
  -4  -5   4  231.68   13.10
  -4  -5   4  218.58   11.30
  -4  -5   4  214.48   14.20
  -4  -5   4  207.28   10.30
   3   5  -4  912.11   27.90
   3   5  -4  911.31   31.10
   3   5  -4  926.01   27.30
  -3  -5   4  941.61   18.80
  -3  -5   4  955.10   30.10
  -3  -5   4  958.50   26.50
  -3  -5   4  948.01   25.00
   2   5  -4  354.16   17.50
   2   5  -4  334.07   14.70
   2   5  -4  348.47   15.40
  -2  -5   4  373.66   17.30
  -2  -5   4  335.97   13.30
  -2  -5   4  348.77   12.50
   1   5  -4  768.02   23.70
   1   5  -4  737.03   26.00
   1   5  -4  771.32   24.00
   1   5  -4  737.23   26.10
  -1  -5   4  781.22   20.60
  -1  -5   4  734.73   19.70
  -1  -5   4  743.03   25.90
   0   5  -4   23.90    4.70
   0   5  -4   27.40    6.20
   0   5  -4   22.40    5.90
   0   5  -4   27.80    6.30
   0  -5   4   26.90    6.50
   0  -5   4   26.90    3.90
   0  -5   4   26.00    4.10
  -1   5  -4   82.69    9.40
  -1   5  -4   62.49    7.00
  -1   5  -4   72.79    8.50
  -1   5  -4   71.19    9.50
  -1   5  -4   74.19    4.80
   1  -5   4   58.69    5.70
   1  -5   4   61.89    6.00
  -2   5  -4  556.64   22.40
  -2   5  -4  547.55   22.80
  -2   5  -4  518.35   16.30
  -2   5  -4  564.04   19.60
  -2   5  -4  547.85   18.60
   2  -5   4  555.74   16.90
   2  -5   4  543.55   17.80
  -3   5  -4  837.82   24.10
  -3   5  -4  893.41   29.60
  -3   5  -4  810.32   24.70
  -3   5  -4  855.61   26.10
   3  -5   4  900.81   24.00
   3  -5   4  807.92   24.30
  -4   5  -4  123.79   16.00
  -4   5  -4  134.99   12.20
  -4   5  -4  127.09   10.20
   4  -5   4  125.49    9.40
   4  -5   4  135.79    9.90
  -5   5  -4  408.06   24.30
  -5   5  -4  410.56   18.80
   5  -5   4  413.26   17.20
   5  -5   4  411.46   17.20
  -6   5  -4   72.99   10.00
  -6   5  -4   64.99   10.10
   6  -5   4   61.79    8.30
  -7   5  -4   78.19   11.90
  -7   5  -4   66.59    9.90
   7  -5   4   83.99   10.40
  -8   5  -4  139.19   13.70
  -8   5  -4  111.39   14.00
   8  -5   4  123.19   12.80
  -9   5  -4  159.48   14.90
  -9   5  -4  166.18   17.20
  -9   5  -4  139.39   11.60
   9  -5   4  148.69   14.30
   9   4  -4  -11.90    5.00
  -9  -4   4   -7.40    4.40
  -9  -4   4    6.60    6.30
   8   4  -4   16.50    6.90
  -8  -4   4   16.90    6.00
  -8  -4   4   20.80    6.20
   7   4  -4   21.50    6.70
  -7  -4   4   36.00    8.20
  -7  -4   4   39.60    7.30
   6   4  -4  702.53   26.40
  -6  -4   4  687.93   27.80
  -6  -4   4  674.13   24.40
  -6  -4   4  639.44   26.10
   5   4  -4   45.20    7.40
  -5  -4   4   39.30    5.60
  -5  -4   4   36.10    6.00
  -5  -4   4   44.90    7.60
  -5  -4   4   29.90    7.50
   4   4  -4  500.55   19.00
   4   4  -4  548.85   20.10
   4   4  -4  536.85   21.90
   4   4  -4  511.75   20.40
  -4  -4   4  541.15   18.70
  -4  -4   4  549.65   21.70
  -4  -4   4  541.95   19.60
  -4  -4   4  562.64   16.50
   3   4  -4   -1.10    2.80
   3   4  -4    2.30    4.30
   3   4  -4   -0.10    2.60
   3   4  -4    1.50    4.00
  -3  -4   4   -3.40    2.80
  -3  -4   4   -3.70    2.90
  -3  -4   4    0.50    4.00
  -3  -4   4   -0.80    1.70
   2   4  -4  303.47   13.20
   2   4  -4  290.87   14.40
   2   4  -4  252.27   12.70
  -2  -4   4  271.87   11.20
  -2  -4   4  286.77    6.60
  -2  -4   4  267.47   12.60
  -2  -4   4  289.87   14.60
   1   4  -4  174.88   10.00
   1   4  -4  180.88   10.30
   1   4  -4  156.08   11.10
   1   4  -4  160.48    9.30
  -1  -4   4  174.78    9.10
  -1  -4   4  167.58   11.10
  -1  -4   4  171.88    8.70
   0   4  -4 2622.24   46.60
   0   4  -4 2579.94   55.59
   0   4  -4 2581.24   57.49
   0   4  -4 2546.45   58.49
   0   4  -4 2534.25   53.89
   0  -4   4 2559.14   46.00
   0  -4   4 2505.85   51.59
   0  -4   4 2673.33   58.59
   0  -4   4 2586.14   52.19
  -1   4  -4   29.50    3.60
  -1   4  -4   33.70    6.40
  -1   4  -4   37.40    6.20
  -1   4  -4   33.50    5.30
  -1   4  -4   32.30    6.40
   1  -4   4   28.30    4.70
   1  -4   4   26.90    4.60
   1  -4   4   30.60    3.60
  -2   4  -4  640.54   20.40
  -2   4  -4  630.14   22.30
  -2   4  -4  637.94   18.10
  -2   4  -4  625.74   23.30
  -2   4  -4  610.14   19.30
   2  -4   4  610.24   18.00
   2  -4   4  601.34   21.80
   2  -4   4  606.34   19.60
   2  -4   4  626.24   18.50
  -3   4  -4    4.80    3.90
  -3   4  -4   11.80    4.60
  -3   4  -4    6.50    3.10
   3  -4   4    9.00    3.10
   3  -4   4    5.80    3.70
   3  -4   4    8.40    3.50
   3  -4   4    3.30    3.60
  -4   4  -4  201.88   12.00
  -4   4  -4  172.88   10.80
  -4   4  -4  212.38   12.80
  -4   4  -4  203.28   13.10
   4  -4   4  211.88   11.40
   4  -4   4  192.38   11.00
   4  -4   4  219.28   12.80
   4  -4   4  178.38   14.00
  -5   4  -4    9.50    5.90
  -5   4  -4   13.20    5.20
  -5   4  -4    9.50    4.70
   5  -4   4   18.60    5.20
   5  -4   4   23.00    6.50
   5  -4   4   22.90    5.50
  -6   4  -4  607.94   25.90
   6  -4   4  659.93   24.30
  -7   4  -4    0.30    4.70
  -7   4  -4    6.80    5.50
   7  -4   4   13.70    5.70
  -8   4  -4  134.39   11.20
  -8   4  -4  134.39   14.20
  -8   4  -4  152.68   13.90
   8  -4   4  129.99   12.70
  -9   4  -4    6.10    6.00
  -9   4  -4    4.40    4.80
  -9   4  -4   -1.00    5.30
   9  -4   4    3.90    5.20
   9   3  -4   72.19   11.80
  -9  -3   4   73.19   13.70
  -9  -3   4   80.39   11.90
   8   3  -4  217.98   17.60
  -8  -3   4  194.88   16.00
  -8  -3   4  242.88   16.00
   7   3  -4  118.69   13.00
  -7  -3   4   95.09   10.60
  -7  -3   4   92.99   10.80
   6   3  -4   95.99    8.80
  -6  -3   4   90.99    9.60
  -6  -3   4   86.99   10.30
  -6  -3   4   76.99    9.30
   5   3  -4   -1.40    2.70
   5   3  -4   -0.80    3.80
  -5  -3   4   -1.90    3.30
  -5  -3   4   -1.90    3.10
  -5  -3   4    6.00    4.10
  -5  -3   4    2.10    3.90
   4   3  -4  287.37   14.10
   4   3  -4  308.67   15.00
   4   3  -4  279.87   14.70
   4   3  -4  290.47   14.30
  -4  -3   4  293.37   14.40
  -4  -3   4  305.97   14.20
  -4  -3   4  260.97   11.50
  -4  -3   4  281.77   15.60
   3   3  -4  407.46   15.70
   3   3  -4  350.36   15.50
   3   3  -4  379.36   14.60
   3   3  -4  393.66   16.30
  -3  -3   4  397.96   12.30
  -3  -3   4  398.26   15.90
  -3  -3   4  400.96   15.70
  -3  -3   4  394.86   14.80
   2   3  -4  377.66   17.50
   2   3  -4  414.96   16.40
   2   3  -4  377.66   15.50
   2   3  -4  396.46   14.90
  -2  -3   4  406.66   14.50
  -2  -3   4  401.46   15.70
   1   3  -4  323.37   14.40
   1   3  -4  349.67   13.50
   1   3  -4  314.57   14.10
  -1  -3   4  324.87   13.10
  -1  -3   4  303.67   12.20
  -1  -3   4  325.67    8.30
  -1  -3   4  328.27   14.20
   0   3  -4  254.47   11.60
   0   3  -4  253.27   12.60
   0   3  -4  246.08    8.20
   0   3  -4  249.88   12.80
   0  -3   4  240.28   13.50
   0  -3   4  252.27    7.60
   0  -3   4  254.97   11.40
   0  -3   4  245.28   10.70
  -1   3  -4   28.40    3.60
  -1   3  -4   26.90    5.40
  -1   3  -4   34.40    7.20
  -1   3  -4   25.00    5.50
  -1   3  -4   27.20    4.90
   1  -3   4   23.40    4.40
   1  -3   4   29.00    5.00
   1  -3   4   29.40    3.50
  -2   3  -4  762.32   20.60
  -2   3  -4  820.82   26.40
  -2   3  -4  809.42   24.80
  -2   3  -4  791.52   22.20
   2  -3   4  758.92   21.20
   2  -3   4  747.83   20.60
   2  -3   4  725.93   22.60
   2  -3   4  751.52   21.90
  -3   3  -4  746.23   22.30
  -3   3  -4  761.92   22.90
  -3   3  -4  762.82   24.30
  -3   3  -4  798.12   22.70
   3  -3   4  754.82   21.90
   3  -3   4  756.22   22.80
   3  -3   4  748.03   22.00
   3  -3   4  760.42   23.80
  -4   3  -4  530.75   20.40
  -4   3  -4  486.85   18.60
  -4   3  -4  525.95   19.00
  -4   3  -4  519.25   19.20
   4  -3   4  502.35   19.70
   4  -3   4  532.65   20.10
   4  -3   4  489.65   18.10
   4  -3   4  517.25   18.70
  -5   3  -4  173.08   12.60
  -5   3  -4  169.18   11.90
  -5   3  -4  162.28   12.40
   5  -3   4  198.38   12.40
   5  -3   4  168.98   12.40
   5  -3   4  181.78   11.10
  -6   3  -4   13.60    5.20
  -6   3  -4   11.30    5.50
   6  -3   4    6.60    4.70
   6  -3   4    7.80    5.50
  -7   3  -4   42.00    6.40
  -7   3  -4   46.50    8.30
  -7   3  -4   45.20    8.10
   7  -3   4   36.70    8.50
   7  -3   4   63.19    9.60
  -8   3  -4  159.28   14.00
  -8   3  -4  152.48   14.90
  -8   3  -4  131.79   10.50
   8  -3   4  131.59   12.40
  -9   3  -4   75.29   14.30
  -9   3  -4   70.89    8.70
   9  -3   4   67.69   10.60
 -10   3  -4  105.99   10.10
  10  -3   4  120.09   13.20
   9   2  -4  -11.40    6.50
  -9  -2   4   -3.50    4.20
  -9  -2   4   -5.50    6.20
   8   2  -4   -0.60    5.30
  -8  -2   4    0.00    4.70
  -8  -2   4    5.90    5.30
   7   2  -4  371.86   15.80
   7   2  -4  395.16   20.00
  -7  -2   4  412.76   20.90
  -7  -2   4  375.06   19.40
   6   2  -4    9.00    4.90
   6   2  -4   16.00    5.20
  -6  -2   4    5.90    4.60
  -6  -2   4    7.50    5.00
  -6  -2   4    6.70    4.60
   5   2  -4  654.33   20.10
   5   2  -4  651.73   23.50
  -5  -2   4  623.64   21.90
  -5  -2   4  687.93   22.30
  -5  -2   4  675.03   23.30
  -5  -2   4  724.03   24.00
   4   2  -4  181.28   10.90
   4   2  -4  187.88    9.80
   4   2  -4  175.88   12.50
   4   2  -4  209.58   12.20
  -4  -2   4  196.08   11.60
  -4  -2   4  182.18    9.90
  -4  -2   4  183.28   11.10
   3   2  -4    3.80    3.50
   3   2  -4    9.90    4.60
   3   2  -4    5.20    3.10
   3   2  -4    2.80    3.50
  -3  -2   4    4.60    3.50
  -3  -2   4    9.30    4.00
  -3  -2   4    4.90    3.80
   2   2  -4   72.79    6.60
   2   2  -4   89.79    7.30
   2   2  -4   86.79    8.50
   2   2  -4   87.59    7.50
  -2  -2   4   92.99    8.00
  -2  -2   4   95.79    7.70
  -2  -2   4   86.19    7.00
   1   2  -4 1373.86   33.60
   1   2  -4 1344.17   32.30
   1   2  -4 1373.86   32.30
  -1  -2   4 1388.26   32.20
  -1  -2   4 1437.76   32.30
  -1  -2   4 1418.36   33.20
  -1  -2   4 1460.45   29.10
   0   2  -4  253.37   11.50
   0   2  -4  239.98   11.10
   0   2  -4  249.38   12.00
   0   2  -4  258.87    9.00
   0  -2   4  243.58   10.80
   0  -2   4  250.87   11.50
   0  -2   4  244.88   10.90
   0  -2   4  244.28    8.40
  -1   2  -4  404.16   15.20
  -1   2  -4  388.76   13.90
  -1   2  -4  402.46   15.40
  -1   2  -4  380.96   14.90
  -1   2  -4  396.06   12.30
   1  -2   4  378.16   13.50
   1  -2   4  373.86   12.10
   1  -2   4  389.16   14.60
  -2   2  -4  286.67   12.20
  -2   2  -4  297.27   12.60
  -2   2  -4  295.77   11.60
  -2   2  -4  291.47   12.70
   2  -2   4  275.77   11.30
   2  -2   4  291.87   12.00
   2  -2   4  285.37   12.30
   2  -2   4  277.07   12.20
  -3   2  -4   97.69    7.90
  -3   2  -4   90.29    7.50
  -3   2  -4   97.09    8.60
  -3   2  -4   95.79    7.60
   3  -2   4   90.69    8.10
   3  -2   4   88.89    7.90
   3  -2   4   85.59    7.50
   3  -2   4   94.09    8.10
  -4   2  -4    3.60    2.70
  -4   2  -4    8.40    4.20
  -4   2  -4    5.60    3.90
  -4   2  -4   -0.50    3.10
   4  -2   4    7.00    4.20
   4  -2   4    3.60    3.90
   4  -2   4    5.50    3.80
   4  -2   4    5.80    3.40
  -5   2  -4 1163.48   33.90
  -5   2  -4 1160.18   33.60
  -5   2  -4 1162.98   32.70
   5  -2   4 1164.08   32.40
   5  -2   4 1113.99   31.40
   5  -2   4 1163.28   33.80
   5  -2   4 1096.59   32.30
  -6   2  -4  129.09   12.30
  -6   2  -4  111.29   10.30
   6  -2   4  115.79   10.30
   6  -2   4  127.49   11.70
  -7   2  -4  196.68   12.20
  -7   2  -4  210.28   15.50
  -7   2  -4  181.58   13.90
   7  -2   4  215.48   15.70
   7  -2   4  210.68   15.00
  -8   2  -4   -3.80    4.60
  -8   2  -4    8.30    6.00
  -8   2  -4    6.20    4.60
   8  -2   4   17.60    7.40
   8  -2   4    2.80    5.30
  -9   2  -4   94.09   10.30
  -9   2  -4   88.39   12.00
  -9   2  -4  105.49   13.20
   9  -2   4   97.29   12.10
 -10   2  -4   -4.80    3.90
 -10   2  -4  -15.60    6.00
  10  -2   4    9.50    6.00
   9   1  -4  160.18   13.00
   9   1  -4  191.48   17.80
  -9  -1   4  236.48   19.80
  -9  -1   4  204.48   16.00
   8   1  -4  108.39   12.10
   8   1  -4   85.19    7.80
  -8  -1   4   88.89   10.90
  -8  -1   4   89.99   12.00
   7   1  -4   -6.60    2.40
   7   1  -4    0.90    4.60
  -7  -1   4    6.60    4.70
  -7  -1   4    0.20    3.90
   6   1  -4    2.00    2.70
   6   1  -4   10.30    5.70
  -6  -1   4   -1.00    3.00
  -6  -1   4   -0.70    3.50
  -6  -1   4    3.40    3.90
   5   1  -4  686.03   19.50
   5   1  -4  719.23   24.20
  -5  -1   4  700.23   23.00
  -5  -1   4  675.03   23.30
  -5  -1   4  659.33   22.70
  -5  -1   4  669.73   22.60
   4   1  -4  313.67   14.30
   4   1  -4  302.97   18.20
   4   1  -4  323.77   11.90
   4   1  -4  307.47   13.80
  -4  -1   4  312.37   14.30
  -4  -1   4  314.47   13.70
   3   1  -4 1990.20   45.20
   3   1  -4 2031.90   42.00
   3   1  -4 2106.09   44.50
   3   1  -4 2062.39   45.40
  -3  -1   4 1998.30   44.50
  -3  -1   4 2024.20   43.40
  -3  -1   4 2069.99   45.60
   2   1  -4  577.94   16.80
   2   1  -4  585.84   18.00
   2   1  -4  559.24   18.10
  -2  -1   4  577.54   16.70
  -2  -1   4  580.64   17.90
  -2  -1   4  563.54   18.10
   1   1  -4   56.39    7.10
   1   1  -4   53.89    5.00
   1   1  -4   50.89    6.30
  -1  -1   4   47.80    6.00
  -1  -1   4   49.70    5.00
  -1  -1   4   58.79    6.70
  -1  -1   4   58.79    5.50
   0   1  -4  137.29    8.90
   0   1  -4  115.59    8.20
   0   1  -4  118.29    7.30
   0   1  -4  125.09    7.20
   0  -1   4  124.29    7.00
   0  -1   4  122.89    8.60
   0  -1   4  100.69    7.70
  -1   1  -4  602.84   17.70
  -1   1  -4  664.43   18.90
  -1   1  -4  635.34   17.30
  -1   1  -4  610.74   18.00
   1  -1   4  598.94   17.00
   1  -1   4  637.04   18.60
   1  -1   4  640.64   18.10
  -2   1  -4 1467.05   33.40
  -2   1  -4 1482.15   33.50
  -2   1  -4 1450.85   33.10
  -2   1  -4 1487.35   33.80
   2  -1   4 1491.95   33.10
   2  -1   4 1452.15   33.30
   2  -1   4 1457.05   33.30
   2  -1   4 1457.55   33.50
  -3   1  -4  464.35   16.60
  -3   1  -4  421.56   15.60
  -3   1  -4  462.05   16.50
  -3   1  -4  454.45   15.90
   3  -1   4  448.06   16.30
   3  -1   4  471.35   16.10
   3  -1   4  431.46   15.50
   3  -1   4  445.76   16.40
  -4   1  -4  640.84   21.00
  -4   1  -4  636.84   21.80
  -4   1  -4  656.43   21.20
  -4   1  -4  607.84   20.30
   4  -1   4  618.74   20.30
   4  -1   4  628.14   22.10
   4  -1   4  672.43   21.10
   4  -1   4  616.04   20.50
  -5   1  -4   18.30    4.30
  -5   1  -4   16.40    4.80
  -5   1  -4   19.00    5.20
  -5   1  -4   20.60    5.10
   5  -1   4   19.90    5.10
   5  -1   4   20.50    4.30
   5  -1   4   20.40    4.70
   5  -1   4   18.90    5.40
  -6   1  -4   45.20    7.40
  -6   1  -4   31.80    6.50
  -6   1  -4   38.60    6.60
   6  -1   4   31.30    7.10
   6  -1   4   41.30    7.00
  -7   1  -4  267.57   14.70
  -7   1  -4  289.47   21.20
  -7   1  -4  269.47   16.30
   7  -1   4  274.67   17.80
   7  -1   4  291.57   16.70
  -8   1  -4  345.97   19.10
  -8   1  -4  335.27   20.80
  -8   1  -4  326.17   15.90
   8  -1   4  305.97   19.80
   8  -1   4  320.37   18.80
  -9   1  -4   42.30    7.50
  -9   1  -4   36.50    8.50
  -9   1  -4   55.09    9.80
   9  -1   4   41.90    9.80
   9  -1   4   40.60    8.40
 -10   1  -4   32.10    8.50
 -10   1  -4   30.10    9.40
 -10   1  -4   31.90    7.30
  10  -1   4   32.80    8.20
 -10   0   4   60.19   10.90
  -9   0   4   16.50    7.10
   8   0  -4   89.39    7.20
   8   0  -4  100.79   11.70
  -8   0   4  122.29   13.00
  -8   0   4  101.89   11.30
   7   0  -4   -5.50    2.90
   7   0  -4   -4.30    4.20
  -7   0   4   -3.90    4.90
  -7   0   4   -3.60    4.80
   6   0  -4 1867.11   47.60
   6   0  -4 1811.62   39.00
  -6   0   4 1860.61   47.30
  -6   0   4 1831.72   45.90
   5   0  -4   -3.70    3.10
   5   0  -4    1.40    2.20
   5   0  -4    0.20    3.70
   5   0  -4   -0.30    3.00
  -5   0   4    3.00    3.80
  -5   0   4   -1.90    2.70
  -5   0   4    3.70    3.30
  -5   0   4    8.00    4.50
   4   0  -4  151.28   10.00
   4   0  -4  155.48    7.20
   4   0  -4  147.59   10.80
  -4   0   4  176.38   10.10
  -4   0   4  170.98   11.10
   3   0  -4   -1.20    3.20
   3   0  -4   -4.00    3.30
   3   0  -4    0.10    3.50
   3   0  -4    8.10    3.10
  -3   0   4    7.50    3.60
  -3   0   4    6.20    3.70
  -3   0   4    5.70    3.20
   2   0  -4 1382.56   31.80
   2   0  -4 1350.46   28.70
   2   0  -4 1370.16   31.80
  -2   0   4 1326.47   28.60
  -2   0   4 1339.77   31.80
  -2   0   4 1382.46   31.90
   1   0  -4    1.10    4.20
   1   0  -4    0.70    1.90
   1   0  -4    5.10    3.50
  -1   0   4    0.80    3.20
  -1   0   4    0.00    3.10
  -1   0   4    3.90    2.00
   0   0   4 9999.00  175.98
  -1   0  -4    1.40    2.70
  -1   0  -4   -2.40    3.00
  -1   0  -4   -1.10    3.00
  -1   0  -4    3.30    2.30
   1   0   4    2.90    2.90
   1   0   4    3.20    3.30
   1   0   4    2.00    2.80
  -2   0  -4  408.56   14.00
  -2   0  -4  426.46   14.50
  -2   0  -4  401.46   13.00
  -2   0  -4  436.16   14.70
   2   0   4  422.76   14.20
   2   0   4  410.26   19.20
   2   0   4  432.56   14.40
   2   0   4  428.26   15.00
  -3   0  -4   -1.40    3.20
  -3   0  -4   -0.10    3.70
  -3   0  -4    6.10    3.70
  -3   0  -4    3.20    3.40
   3   0   4    4.10    4.00
   3   0   4    4.80    3.60
   3   0   4    2.80    2.70
   3   0   4    0.50    3.80
  -4   0  -4 1334.27   37.40
  -4   0  -4 1373.96   33.90
  -4   0  -4 1374.56   33.60
  -4   0  -4 1337.17   35.20
   4   0   4 1355.46   33.90
   4   0   4 1356.26   33.10
   4   0   4 1341.17   35.40
   4   0   4 1351.26   33.50
  -5   0  -4    1.00    3.80
  -5   0  -4   -4.80    2.70
  -5   0  -4   -1.70    3.90
  -5   0  -4    2.00    3.30
  -5   0  -4    6.70    3.30
   5   0   4   -0.40    2.70
   5   0   4    4.40    3.70
   5   0   4    3.20    4.00
  -6   0  -4 1398.96   38.40
  -6   0  -4 1380.86   38.50
  -6   0  -4 1413.86   36.20
   6   0   4 1370.16   40.20
   6   0   4 1389.16   38.20
  -7   0  -4   -3.60    3.20
  -7   0  -4    2.60    4.70
  -7   0  -4    2.20    4.30
   7   0   4   -0.90    4.20
   7   0   4    0.70    4.40
  -8   0  -4   71.19   10.40
  -8   0  -4   69.49    8.40
  -8   0  -4   58.39    9.10
   8   0   4   77.99   10.70
   8   0   4   73.39   10.90
  -9   0  -4   -4.30    5.10
  -9   0  -4   10.90    6.50
   9   0   4   11.00    6.40
   9   0   4    9.90    6.60
 -10   0  -4  197.58   16.40
 -10   0  -4  204.68   13.80
 -10   0  -4  202.68   17.80
  10   0   4  211.58   16.90
 -10   1   4   73.69   13.00
   9  -1  -4  141.79   18.40
  -9   1   4  131.09   13.70
   8  -1  -4   73.19   10.70
  -8   1   4   78.29   10.70
  -8   1   4   56.49    8.80
   7  -1  -4   56.19    5.10
   7  -1  -4   65.59    9.50
  -7   1   4   51.89    8.40
  -7   1   4   57.69    9.70
   6  -1  -4   38.60    7.00
   6  -1  -4   20.50    3.40
  -6   1   4   15.50    5.70
  -6   1   4   19.20    6.20
   5  -1  -4  840.42   19.20
   5  -1  -4  850.31   26.40
   5  -1  -4  819.22   26.90
   5  -1  -4  825.42   25.90
  -5   1   4  864.51   25.00
  -5   1   4  859.11   30.10
  -5   1   4  843.72   26.60
   4  -1  -4  467.75   17.40
   4  -1  -4  481.75   18.00
   4  -1  -4  457.25   17.10
   4  -1  -4  463.55   12.10
  -4   1   4  467.25   15.70
  -4   1   4  482.15   17.80
   3  -1  -4  955.00   25.70
   3  -1  -4 1010.80   29.80
   3  -1  -4  958.10   20.60
   3  -1  -4  962.20   25.90
  -3   1   4  967.50   23.30
  -3   1   4 1015.60   26.40
  -3   1   4  987.70   26.00
   2  -1  -4  267.27   10.90
   2  -1  -4  266.97   10.90
  -2   1   4  252.27   11.20
  -2   1   4  271.37    8.30
  -2   1   4  260.07   11.00
   1  -1  -4  221.48    9.40
   1  -1  -4  228.18   10.20
  -1   1   4  206.48    9.30
  -1   1   4  215.68    6.60
   0  -1  -4 1082.59   20.30
   0  -1  -4 1008.90   24.90
   0  -1  -4 1070.99   26.60
   0  -1  -4  992.10   24.70
   0   1   4 1062.39   25.80
   0   1   4 1033.30   25.60
   0   1   4 1098.09   27.20
  -1  -1  -4   68.69    6.30
  -1  -1  -4   64.49    4.10
  -1  -1  -4   55.09    5.80
  -1  -1  -4   57.39    6.30
   1   1   4   59.29    5.40
   1   1   4   63.39    6.70
   1   1   4   60.09    6.70
  -2  -1  -4 1874.21   39.40
  -2  -1  -4 1892.31   41.40
  -2  -1  -4 1866.11   37.00
  -2  -1  -4 1843.82   39.20
   2   1   4 1924.21   42.00
   2   1   4 1861.61   39.60
   2   1   4 1909.41   37.10
   2   1   4 1879.91   39.80
  -3  -1  -4  357.76   12.40
  -3  -1  -4  360.46   13.50
  -3  -1  -4  352.96   13.10
  -3  -1  -4  350.06   14.50
   3   1   4  364.96   13.70
   3   1   4  357.66   13.50
   3   1   4  367.96   15.60
   3   1   4  351.66   12.30
  -4  -1  -4  276.97   13.70
  -4  -1  -4  274.57   12.60
  -4  -1  -4  283.67   12.30
  -4  -1  -4  273.57   12.20
  -4  -1  -4  298.47   13.10
   4   1   4  309.67   13.40
   4   1   4  279.47   11.90
   4   1   4  296.57   13.30
   4   1   4  271.17   14.20
  -5  -1  -4   46.20    6.60
  -5  -1  -4   45.40    6.80
  -5  -1  -4   51.49    6.60
  -5  -1  -4   46.40    6.50
  -5  -1  -4   40.60    5.90
   5   1   4   39.00    6.20
   5   1   4   54.19    6.70
   5   1   4   56.39    7.50
   5   1   4   49.30    7.60
  -6  -1  -4  270.47   14.70
  -6  -1  -4  258.67   14.30
  -6  -1  -4  276.47   13.90
   6   1   4  275.37   14.50
   6   1   4  288.77   15.20
   6   1   4  279.77   16.70
  -7  -1  -4  190.08   16.10
  -7  -1  -4  159.18   12.90
  -7  -1  -4  171.08   11.90
   7   1   4  183.18   14.70
   7   1   4  178.98   14.00
  -8  -1  -4  306.87   18.90
  -8  -1  -4  328.07   18.50
   8   1   4  327.27   19.00
   8   1   4  298.97   20.60
  -9  -1  -4   16.70    6.50
  -9  -1  -4   13.40    5.60
  -9  -1  -4   22.00    6.50
   9   1   4   20.80    6.50
   9   1   4   26.30    7.00
 -10  -1  -4  -11.70    7.10
 -10  -1  -4   12.30    6.00
 -10  -1  -4    3.00    5.50
  10   1   4   11.10    6.90
  10   1   4   10.40    7.20
  10  -2  -4  -10.20    7.20
   9  -2  -4   93.69   12.90
  -9   2   4   90.59   11.90
  -8   2   4    3.90    5.10
  -7   2   4  668.43   26.00
  -7   2   4  576.24   25.50
   6  -2  -4   32.40    7.20
  -6   2   4   28.40    6.50
  -6   2   4   43.20    8.20
   5  -2  -4  244.68    6.40
   5  -2  -4  245.18   12.90
   5  -2  -4  215.28   12.80
   5  -2  -4  242.98   12.70
  -5   2   4  246.48   14.00
  -5   2   4  260.07   13.80
   4  -2  -4  292.67   13.00
   4  -2  -4  298.27   13.80
   4  -2  -4  313.57   13.70
   4  -2  -4  298.87    7.30
  -4   2   4  312.47   14.80
  -4   2   4  327.77   14.80
   3  -2  -4  851.21   23.20
   3  -2  -4  852.71   23.70
   3  -2  -4  840.52   23.00
   3  -2  -4  840.62   16.80
  -3   2   4  846.52   23.10
  -3   2   4  823.82   23.20
   2  -2  -4   79.79    6.50
   2  -2  -4   76.29    5.70
   2  -2  -4   86.19    6.40
  -2   2   4   83.69    6.70
  -2   2   4   92.39    6.90
   1  -2  -4 3166.68   56.89
   1  -2  -4 3053.99   60.49
  -1   2   4 3065.09   60.29
  -1   2   4 3150.18   59.79
   0  -2  -4  687.43   12.90
   0  -2  -4  727.73   14.00
   0  -2  -4  696.23   17.90
   0  -2  -4  701.03   17.60
   0   2   4  704.83   18.70
   0   2   4  725.13   21.70
   0   2   4  684.63   18.60
  -1  -2  -4  294.37   10.30
  -1  -2  -4  332.37   11.40
  -1  -2  -4  333.87   13.80
  -1  -2  -4  322.57    7.90
   1   2   4  325.87   10.90
   1   2   4  302.57   11.60
   1   2   4  322.67   13.70
  -2  -2  -4  209.48   11.00
  -2  -2  -4  200.58    8.90
  -2  -2  -4  213.38    7.20
  -2  -2  -4  214.08    8.90
  -2  -2  -4  224.28   10.30
   2   2   4  220.58   11.40
   2   2   4  200.38    9.30
   2   2   4  221.48    9.40
   2   2   4  213.78    7.30
  -3  -2  -4 1258.07   32.40
  -3  -2  -4 1248.98   29.10
  -3  -2  -4 1225.18   29.10
  -3  -2  -4 1214.28   27.60
   3   2   4 1290.17   30.30
   3   2   4 1320.47   45.90
   3   2   4 1219.38   29.50
  -4  -2  -4   -1.50    2.40
  -4  -2  -4   -0.10    3.00
  -4  -2  -4   -2.20    2.70
  -4  -2  -4   -4.10    3.00
  -4  -2  -4    2.30    3.80
   4   2   4    3.70    2.90
   4   2   4    0.40    3.10
   4   2   4    2.30    3.70
   4   2   4    6.80    3.90
  -5  -2  -4 1664.33   40.70
  -5  -2  -4 1692.63   40.70
  -5  -2  -4 1694.63   40.30
  -5  -2  -4 1638.44   43.20
  -5  -2  -4 1708.93   40.40
   5   2   4 1670.33   43.60
   5   2   4 1715.93   41.70
   5   2   4 1650.53   39.60
   5   2   4 1690.73   41.00
  -6  -2  -4   69.99    8.70
  -6  -2  -4   76.99    8.20
  -6  -2  -4   82.89    8.50
  -6  -2  -4   98.59    8.30
   6   2   4  102.39   10.80
   6   2   4   81.39    8.90
   6   2   4   85.99    9.10
  -7  -2  -4   13.60    5.40
  -7  -2  -4    9.50    5.10
  -7  -2  -4    0.60    4.90
   7   2   4    5.20    5.10
   7   2   4    3.00    4.80
  -8  -2  -4    8.80    4.90
  -8  -2  -4    7.40    6.60
  -8  -2  -4    6.00    4.60
   8   2   4    2.90    5.40
   8   2   4    9.80    6.40
  -9  -2  -4  266.47   19.30
  -9  -2  -4  261.87   16.50
  -9  -2  -4  269.97   17.00
   9   2   4  246.88   19.50
   9   2   4  269.37   19.20
 -10  -2  -4   13.80    6.50
 -10  -2  -4    9.70    6.30
 -10  -2  -4    9.40    5.10
  10   2   4    3.90    6.40
  10   2   4   18.10    6.50
   9  -3  -4  193.28   15.40
  -9   3   4  210.68   18.10
   8  -3  -4  210.58   15.20
  -8   3   4  202.68   15.70
  -8   3   4  185.48   15.90
   7  -3  -4   -7.30    3.40
  -7   3   4    4.70    5.50
  -7   3   4   -1.60    3.70
   6  -3  -4  127.29   11.10
  -6   3   4  139.39   11.50
  -6   3   4  135.59   12.70
   5  -3  -4  423.66   17.90
   5  -3  -4  421.26   16.70
   5  -3  -4  399.26   16.70
  -5   3   4  440.66   19.10
  -5   3   4  426.56   17.90
   4  -3  -4 1201.78   30.70
   4  -3  -4 1144.19   31.00
   4  -3  -4 1183.88   30.10
  -4   3   4 1222.58   31.70
  -4   3   4 1196.48   31.40
   3  -3  -4 1777.02   39.00
   3  -3  -4 1772.22   39.30
   3  -3  -4 1727.73   38.10
  -3   3   4 1729.33   39.40
  -3   3   4 1793.02   39.40
   2  -3  -4  457.65   13.50
   2  -3  -4  438.76   14.30
   2  -3  -4  464.45   10.60
   2  -3  -4  448.76   14.20
  -2   3   4  451.25   14.60
  -2   3   4  458.45   14.60
  -2   3   4  429.06   13.50
   1  -3  -4   15.70    2.40
   1  -3  -4   14.30    3.50
   1  -3  -4   16.90    3.10
   1  -3  -4   15.20    2.60
  -1   3   4   20.10    2.20
  -1   3   4   14.00    3.60
  -1   3   4   18.90    2.70
  -1   3   4   19.10    3.50
   0  -3  -4 1297.37   25.90
   0  -3  -4 1237.68   27.30
   0  -3  -4 1256.97   25.90
   0  -3  -4 1248.98   24.50
   0  -3  -4 1259.27   22.90
   0   3   4 1274.87   23.90
   0   3   4 1267.17   27.60
   0   3   4 1233.28   30.00
   0   3   4 1314.37   33.30
  -1  -3  -4  732.53   16.90
  -1  -3  -4  740.83   19.40
  -1  -3  -4  756.32   23.30
  -1  -3  -4  760.02   17.50
  -1  -3  -4  754.62   17.50
   1   3   4  715.93   22.50
   1   3   4  695.63   19.00
  -2  -3  -4 2808.22   55.89
  -2  -3  -4 2809.02   58.79
  -2  -3  -4 2686.83   52.39
  -2  -3  -4 2771.42   54.69
  -2  -3  -4 2761.42   53.19
   2   3   4 2691.13   54.09
   2   3   4 2852.51   58.99
   2   3   4 2796.72   50.19
   2   3   4 2781.62   53.69
  -3  -3  -4  592.84   16.30
  -3  -3  -4  622.74   20.80
  -3  -3  -4  600.84   17.00
  -3  -3  -4  610.54   19.20
  -3  -3  -4  633.74   19.50
  -3  -3  -4  593.84   17.10
   3   3   4  614.34   16.20
   3   3   4  639.44   21.40
   3   3   4  588.14   18.10
   3   3   4  615.24   18.10
  -4  -3  -4   40.40    5.00
  -4  -3  -4   41.10    6.40
  -4  -3  -4   38.40    5.80
  -4  -3  -4   29.00    4.40
  -4  -3  -4   34.70    5.60
   4   3   4   42.30    4.90
   4   3   4   31.30    6.10
   4   3   4   42.70    6.00
   4   3   4   39.40    5.50
  -5  -3  -4   65.49    8.00
  -5  -3  -4   71.89    8.20
  -5  -3  -4   54.49    6.70
  -5  -3  -4   69.49    7.00
  -5  -3  -4   57.99    6.90
   5   3   4   55.69    8.00
   5   3   4   78.29    7.60
   5   3   4   55.69    6.60
   5   3   4   71.29    7.50
  -6  -3  -4  520.45   20.50
  -6  -3  -4  513.85   19.30
  -6  -3  -4  547.45   21.40
  -6  -3  -4  546.25   20.30
   6   3   4  571.24   21.10
   6   3   4  545.05   21.40
   6   3   4  538.95   23.60
  -7  -3  -4  195.08   13.70
  -7  -3  -4  203.28   15.40
  -7  -3  -4  187.58   13.10
  -7  -3  -4  190.78   13.50
   7   3   4  186.88   16.00
   7   3   4  181.98   15.80
  -8  -3  -4  617.24   24.60
  -8  -3  -4  593.54   23.90
  -8  -3  -4  600.54   27.80
   8   3   4  651.23   29.10
   8   3   4  659.03   27.20
  -9  -3  -4   93.19   10.40
  -9  -3  -4   86.69   12.70
  -9  -3  -4  107.59   10.90
   9   3   4  104.69   13.40
   9   3   4  103.39   13.10
 -10  -3  -4    6.70    4.60
 -10  -3  -4   12.80    8.00
  10   3   4    8.10    5.90
  10   3   4   17.50    8.30
   9  -4  -4   19.80    7.10
  -9   4   4   15.70    9.30
  -9   4   4   15.80    7.10
   8  -4  -4  353.16   19.10
  -8   4   4  403.06   22.60
  -8   4   4  425.06   22.70
   7  -4  -4   32.50    7.80
  -7   4   4   33.10    7.50
  -7   4   4   24.70    6.80
  -6   4   4  616.04   24.00
  -6   4   4  602.74   24.90
   5  -4  -4   23.60    5.00
   5  -4  -4   19.40    5.60
  -5   4   4   28.00    5.70
  -5   4   4   24.10    5.90
   4  -4  -4  209.88   10.60
   4  -4  -4  225.18   10.90
   4  -4  -4  180.58   11.20
  -4   4   4  211.08   11.50
  -4   4   4  242.58   12.40
  -4   4   4  182.58   12.40
   3  -4  -4  160.48    8.70
   3  -4  -4  156.78    8.10
   3  -4  -4  152.58    9.10
  -3   4   4  151.68    9.20
  -3   4   4  159.58    9.10
  -3   4   4  155.58    9.50
   2  -4  -4 1272.47   27.10
   2  -4  -4 1304.37   28.80
   2  -4  -4 1292.77   25.00
   2  -4  -4 1239.08   28.60
  -2   4   4 1306.27   29.50
  -2   4   4 1272.67   28.70
  -2   4   4 1242.28   28.80
   1  -4  -4   26.40    3.10
   1  -4  -4   28.80    3.20
   1  -4  -4   31.80    3.80
   1  -4  -4   27.30    3.30
  -1   4   4   42.60    5.10
  -1   4   4   25.60    3.10
  -1   4   4   22.60    3.70
  -1   4   4   24.70    3.00
   0  -4  -4 1709.33   35.30
   0  -4  -4 1782.12   31.60
   0  -4  -4 1711.03   31.50
   0  -4  -4 1706.03   36.10
   0   4   4 1820.22   31.90
   0   4   4 1823.32   34.30
   0   4   4 1827.72   43.20
   0   4   4 1713.83   34.90
   0   4   4 1701.43   34.70
   0   4   4 1788.42   36.40
  -1  -4  -4    6.00    3.30
  -1  -4  -4    5.70    2.80
  -1  -4  -4    6.90    4.40
  -1  -4  -4    5.00    1.50
  -1  -4  -4    5.80    1.60
   1   4   4    4.80    2.60
   1   4   4    7.90    2.50
   1   4   4    9.50    4.70
   1   4   4    7.10    1.20
   1   4   4    6.80    3.20
   1   4   4    5.90    1.30
   1   4   4    2.80    3.50
  -2  -4  -4  485.95   11.80
  -2  -4  -4  482.45   15.50
  -2  -4  -4  474.85   12.30
  -2  -4  -4  472.25   18.20
   2   4   4  483.55   13.80
   2   4   4  488.45   11.80
   2   4   4  472.25   16.20
   2   4   4  459.85   13.90
  -3  -4  -4  309.37   10.40
  -3  -4  -4  301.87   13.30
  -3  -4  -4  333.77   13.80
  -3  -4  -4  309.07   10.40
  -3  -4  -4  291.37   14.10
   3   4   4  297.07   13.50
   3   4   4  307.67   11.80
   3   4   4  315.27   11.90
   3   4   4  313.77   12.40
   3   4   4  324.37   15.60
  -4  -4  -4 1075.69   30.20
  -4  -4  -4 1088.59   26.00
  -4  -4  -4 1107.29   30.20
  -4  -4  -4 1014.10   35.60
  -4  -4  -4 1058.49   25.80
   4   4   4 1045.20   26.30
   4   4   4 1054.09   27.70
   4   4   4 1055.59   29.20
   4   4   4 1109.89   31.90
   4   4   4 1106.79   28.40
  -5  -4  -4  112.69   10.50
  -5  -4  -4   98.19    9.60
  -5  -4  -4  115.79    9.50
  -5  -4  -4  111.39    8.20
  -5  -4  -4  100.99    7.60
   5   4   4  101.49    7.80
   5   4   4  107.49    9.10
   5   4   4   99.59   10.20
   5   4   4  110.89    9.60
  -6  -4  -4  237.38   14.90
  -6  -4  -4  229.28   15.60
  -6  -4  -4  217.08   11.60
   6   4   4  218.58   12.70
   6   4   4  241.88   13.80
   6   4   4  230.08   15.30
  -7  -4  -4    5.10    6.10
  -7  -4  -4    9.80    4.70
  -7  -4  -4    9.20    4.60
   7   4   4    3.00    5.20
   7   4   4   10.90    6.70
  -8  -4  -4  291.97   15.60
  -8  -4  -4  274.77   19.40
  -8  -4  -4  305.27   17.40
   8   4   4  297.07   19.60
   8   4   4  301.67   18.40
  -9  -4  -4   20.60    6.30
  -9  -4  -4   15.40    5.00
  -9  -4  -4   10.90    8.10
   9   4   4   25.90    7.60
   9   4   4   19.30    8.00
  10   4   4  102.89   13.80
  10   4   4  132.49   14.70
   9  -5  -4   41.40    9.20
  -9   5   4   60.69   11.80
  -9   5   4   66.49   11.60
   8  -5  -4   24.20    7.20
  -8   5   4    7.20    6.80
  -8   5   4   28.70    8.60
  -7   5   4   63.59    9.30
  -7   5   4   49.30    9.20
   6  -5  -4  167.88   11.20
   6  -5  -4  208.98   12.10
  -6   5   4  185.98   13.80
  -6   5   4  188.48   13.20
   5  -5  -4  607.84   19.80
   5  -5  -4  620.84   20.40
   5  -5  -4  606.14   26.10
  -5   5   4  616.24   22.40
  -5   5   4  596.74   22.50
   4  -5  -4    3.40    2.40
   4  -5  -4    5.20    3.50
  -4   5   4    2.60    3.30
  -4   5   4    1.50    2.90
  -4   5   4    3.80    3.20
   3  -5  -4  585.34   16.70
   3  -5  -4  577.64   16.30
   3  -5  -4  570.54   18.60
  -3   5   4  617.54   18.90
  -3   5   4  627.24   19.90
  -3   5   4  561.34   17.70
   2  -5  -4  225.48    7.80
   2  -5  -4  226.08    7.60
   2  -5  -4  238.08   10.10
   2  -5  -4  223.28    7.20
  -2   5   4  234.48    9.50
  -2   5   4  224.38   10.10
  -2   5   4  237.48   10.30
  -2   5   4  227.08    9.70
   1  -5  -4  749.73   18.00
   1  -5  -4  695.93   17.70
  -1   5   4  721.73   18.20
  -1   5   4  682.23   17.40
  -1   5   4  695.53   17.50
  -1   5   4  737.23   21.10
  -1   5   4  737.83   18.00
   0  -5  -4  402.96   13.70
   0  -5  -4  393.06   13.00
   0   5   4  392.66   14.20
   0   5   4  381.26   10.80
   0   5   4  381.96   10.20
   0   5   4  370.06   20.30
   0   5   4  394.36   13.20
   0   5   4  380.96   10.90
  -1  -5  -4  655.33   19.00
  -1  -5  -4  666.13   19.50
  -1  -5  -4  659.13   22.70
   1   5   4  645.64   16.60
   1   5   4  673.73   27.40
   1   5   4  672.53   19.40
   1   5   4  680.63   18.40
   1   5   4  676.73   15.90
   1   5   4  653.23   14.70
  -2  -5  -4   92.09    7.50
  -2  -5  -4   90.19    9.30
  -2  -5  -4   92.99    7.80
   2   5   4   93.99    5.30
   2   5   4   95.29    9.10
   2   5   4   96.69    5.70
   2   5   4   78.69    7.20
   2   5   4   92.09    5.90
   2   5   4   92.09    6.70
  -3  -5  -4  133.19    9.10
  -3  -5  -4  126.99   10.10
  -3  -5  -4  132.99    9.60
  -3  -5  -4  133.69    5.60
  -3  -5  -4  134.29    5.10
   3   5   4  118.99   10.10
   3   5   4  133.49    7.60
   3   5   4  132.19    7.10
   3   5   4  132.99    7.70
   3   5   4  128.19    9.00
  -4  -5  -4  163.78   11.30
  -4  -5  -4  147.59    7.20
  -4  -5  -4  139.99   10.40
  -4  -5  -4  141.79   10.40
   4   5   4  165.08   10.50
   4   5   4  149.49    8.50
   4   5   4  166.58    9.10
   4   5   4  158.38   11.30
   4   5   4  134.29   10.80
  -5  -5  -4  407.76   18.10
  -5  -5  -4  386.26   13.80
  -5  -5  -4  397.66   18.60
   5   5   4  382.76   16.00
   5   5   4  363.26   16.10
   5   5   4  420.96   18.90
   5   5   4  376.86   15.60
  -6  -5  -4   94.09    7.70
  -6  -5  -4   84.19    7.30
  -6  -5  -4   77.59   10.50
   6   5   4   71.59    9.30
   6   5   4   94.19    9.10
   6   5   4   96.69    9.30
  -7  -5  -4  294.47   14.30
  -7  -5  -4  313.57   14.90
  -7  -5  -4  313.67   17.10
  -7  -5  -4  318.07   19.30
   7   5   4  295.17   20.30
   7   5   4  303.67   18.40
  -8  -5  -4    2.20    5.50
  -8  -5  -4    7.60    4.00
  -8  -5  -4   -4.30    5.00
   8   5   4   -2.60    4.70
   8   5   4   -7.00    4.20
  -9  -5  -4   -0.40    5.70
  -9  -5  -4    9.40    7.10
  -9  -5  -4   14.80    5.80
   9   5   4    8.70    5.70
   9   5   4    6.40    6.60
   9  -6  -4  117.99   13.30
  -9   6   4  170.68   16.30
  -9   6   4  171.28   15.70
   8  -6  -4   49.70    8.70
  -8   6   4   79.49   10.80
  -8   6   4   42.20    9.70
   7  -6  -4  415.56   18.80
  -7   6   4  367.56   20.70
  -7   6   4  433.36   21.10
   6  -6  -4  106.59    9.30
   6  -6  -4   82.09    7.90
  -6   6   4  107.59   18.30
  -6   6   4  103.49   10.10
   5  -6  -4   -0.10    3.10
  -5   6   4   -4.20    2.90
  -5   6   4    1.00    3.50
   4  -6  -4   -0.70    2.60
   4  -6  -4    4.30    3.10
   4  -6  -4    4.40    3.10
  -4   6   4    0.60    3.70
  -4   6   4    4.20    3.20
  -4   6   4    1.90    4.10
   3  -6  -4 1298.77   33.10
   3  -6  -4 1347.77   27.00
   3  -6  -4 1305.07   27.90
  -3   6   4 1388.96   33.60
  -3   6   4 1292.97   31.40
  -3   6   4 1307.57   34.00
  -3   6   4 1348.67   32.10
   2  -6  -4  219.08   10.40
   2  -6  -4  228.88    8.30
  -2   6   4  215.08    9.30
  -2   6   4  222.68    9.40
  -2   6   4  212.98   10.60
  -2   6   4  234.38   10.70
   1  -6  -4  856.41   21.40
   1  -6  -4  866.01   21.70
  -1   6   4  855.11   22.10
  -1   6   4  872.51   21.50
  -1   6   4  837.52   19.50
  -1   6   4  843.62   21.10
   0  -6  -4  201.58   11.10
   0  -6  -4  189.48    9.60
   0   6   4  195.88    9.20
   0   6   4  209.68    9.60
   0   6   4  192.88    6.80
   0   6   4  208.28    7.90
   0   6   4  216.48   13.50
   0   6   4  202.98    7.00
  -1  -6  -4  131.99    8.90
  -1  -6  -4  130.89    9.30
   1   6   4  137.29    8.30
   1   6   4  120.09   11.10
   1   6   4  134.09    5.40
   1   6   4  132.79    7.90
   1   6   4  125.39    6.10
   1   6   4  136.99    6.30
  -2  -6  -4   18.00    5.00
  -2  -6  -4   23.00    5.30
  -2  -6  -4   25.00    6.20
   2   6   4   20.40    6.10
   2   6   4   29.70    3.50
   2   6   4   25.10    3.40
   2   6   4   28.40    4.90
  -3  -6  -4 1598.04   60.39
  -3  -6  -4 1728.43   42.30
  -3  -6  -4 1750.92   42.10
   3   6   4 1694.03   36.80
   3   6   4 1673.03   41.40
   3   6   4 1716.33   36.90
   3   6   4 1731.63   43.60
   3   6   4 1741.83   36.70
  -4  -6  -4  176.98    5.90
  -4  -6  -4  168.48   11.80
  -4  -6  -4  173.88   12.50
  -4  -6  -4  169.48   11.80
  -4  -6  -4  171.28    5.40
   4   6   4  192.58    9.60
   4   6   4  181.08   12.10
   4   6   4  195.08   10.30
  -5  -6  -4  747.83   18.80
  -5  -6  -4  726.23   26.90
  -5  -6  -4  790.62   26.80
   5   6   4  762.72   27.70
   5   6   4  758.32   24.30
   5   6   4  720.43   23.10
   5   6   4  730.43   23.00
  -6  -6  -4   -5.00    4.60
  -6  -6  -4    5.00    3.70
  -6  -6  -4    8.40    5.60
  -6  -6  -4    5.50    3.20
   6   6   4    6.40    4.40
   6   6   4    5.00    3.50
   6   6   4   17.40    6.00
  -7  -6  -4   11.20    4.60
  -7  -6  -4   12.50    4.30
  -7  -6  -4   16.60    7.20
  -7  -6  -4    7.10    5.30
   7   6   4   14.00    7.00
   7   6   4   15.20    5.50
  -8  -6  -4   29.70    7.30
  -8  -6  -4   33.10    6.40
  -8  -6  -4   27.00    8.50
   8   6   4   28.60    8.70
   8   6   4   13.70    7.20
  -9  -6  -4  327.17   23.10
  -9  -6  -4  313.17   23.10
   9   6   4  309.77   22.10
   9   6   4  314.87   20.40
   8  -7  -4   11.80    6.10
  -8   7   4   36.70    8.20
  -8   7   4   22.60    7.90
   7  -7  -4    5.50    4.50
   7  -7  -4   11.80    6.10
  -7   7   4    7.00    5.60
  -7   7   4   12.10    6.30
   6  -7  -4  412.66   16.10
  -6   7   4  440.56   21.50
   5  -7  -4  252.07   10.80
  -5   7   4  254.17   14.10
  -5   7   4  252.87   16.00
   4  -7  -4   87.59    8.70
   4  -7  -4   92.09    5.20
   4  -7  -4   94.69    6.10
  -4   7   4   69.59    7.60
  -4   7   4   94.29    8.40
  -4   7   4   89.09    9.10
   3  -7  -4  255.87   13.10
  -3   7   4  280.47   11.80
  -3   7   4  263.07   13.70
  -3   7   4  261.07   13.00
  -3   7   4  272.17   12.10
  -3   7   4  255.37    8.80
   2  -7  -4  196.08    8.60
   2  -7  -4  209.48   10.70
  -2   7   4  217.68   11.30
  -2   7   4  191.88   11.10
  -2   7   4  203.38    8.90
  -2   7   4  213.08    9.00
  -2   7   4  195.28    8.50
   1  -7  -4  223.48    9.80
   1  -7  -4  214.18   10.50
  -1   7   4  223.18   10.00
  -1   7   4  229.18   10.10
  -1   7   4  243.88   14.30
  -1   7   4  206.58    7.60
  -1   7   4  206.38   10.70
   0  -7  -4 1683.43   38.20
   0  -7  -4 1606.14   40.80
   0   7   4 1707.33   38.40
   0   7   4 1674.53   38.60
   0   7   4 1672.23   31.70
   0   7   4 1586.84   31.60
   0   7   4 1656.23   35.50
   0   7   4 1735.63   45.70
  -1  -7  -4  261.97   12.80
  -1  -7  -4  277.67   13.80
   1   7   4  257.57    8.20
   1   7   4  266.57   10.10
   1   7   4  269.27   12.10
   1   7   4  264.77   15.30
   1   7   4  255.47    7.60
  -2  -7  -4  366.76   16.50
  -2  -7  -4  374.16   15.90
   2   7   4  359.26   15.40
   2   7   4  380.16   17.80
   2   7   4  353.46   10.80
   2   7   4  361.06   15.60
  -3  -7  -4   61.09    8.00
  -3  -7  -4   48.40    7.80
  -3  -7  -4   61.49    7.60
   3   7   4   59.89    5.30
   3   7   4   57.19    5.40
   3   7   4   52.19    7.60
   3   7   4   45.30    5.60
   3   7   4   56.49    7.60
  -4  -7  -4  197.18   12.90
  -4  -7  -4  186.48   13.60
  -4  -7  -4  191.08   13.50
   4   7   4  188.98   10.50
   4   7   4  182.88   12.40
   4   7   4  184.58    9.60
  -5  -7  -4  269.37   15.70
  -5  -7  -4  277.97   16.60
   5   7   4  262.57   16.50
   5   7   4  264.07   14.10
   5   7   4  257.67   12.50
   5   7   4  261.77   13.10
  -6  -7  -4  468.05   22.90
  -6  -7  -4  461.65   13.20
  -6  -7  -4  456.85   21.30
   6   7   4  463.55   19.20
   6   7   4  500.25   27.30
  -7  -7  -4   89.59   11.20
  -7  -7  -4   79.29   11.10
  -7  -7  -4   81.29    6.70
  -7  -7  -4   82.49    7.30
   7   7   4   77.39    9.50
   7   7   4   73.49   11.00
  -8  -7  -4   32.20    7.30
  -8  -7  -4   25.20    7.70
  -8  -7  -4   32.60    5.80
   8   7   4   33.10    7.90
   8   7   4   29.60    7.50
  -9  -7  -4   -6.80    4.70
  -9  -7  -4    1.60    5.80
  -9  -7  -4   -1.50    5.80
  -8   8   4   97.09   16.10
   7  -8  -4   64.69    7.80
  -7   8   4   55.49    9.00
  -7   8   4   35.20    9.10
   6  -8  -4    4.50    3.60
   6  -8  -4   -4.10    3.20
  -6   8   4    6.70    4.40
  -6   8   4   -2.80    4.40
   5  -8  -4    7.40    2.90
   5  -8  -4    6.20    2.30
  -5   8   4   -6.30    3.40
  -5   8   4    2.90    4.00
  -4   8   4  435.26   17.10
  -4   8   4  443.56   17.20
  -4   8   4  415.96   11.10
  -4   8   4  470.05   19.70
  -4   8   4  427.56   19.60
   3  -8  -4  695.83   24.00
  -3   8   4  742.93   24.10
  -3   8   4  752.32   21.40
  -3   8   4  773.72   24.80
  -3   8   4  714.83   18.50
  -3   8   4  730.63   25.60
   2  -8  -4  417.56   14.30
   2  -8  -4  413.26   16.80
  -2   8   4  457.45   16.90
  -2   8   4  420.46   17.40
  -2   8   4  427.46   14.50
  -2   8   4  425.86   13.60
  -2   8   4  434.66   13.60
   1  -8  -4  152.68    8.90
  -1   8   4  148.29   13.10
  -1   8   4  170.88    9.60
  -1   8   4  150.88    9.90
  -1   8   4  162.48    9.10
  -1   8   4  155.28    6.40
   0  -8  -4    3.80    3.80
   0  -8  -4    2.00    5.00
   0   8   4   -0.80    5.10
   0   8   4    3.60    2.80
   0   8   4    4.00    3.20
   0   8   4    5.00    1.40
   0   8   4    3.80    1.40
  -1  -8  -4   77.59    7.80
  -1  -8  -4   81.59    9.70
   1   8   4   78.49    3.60
   1   8   4   86.49    4.30
   1   8   4   65.49   12.80
   1   8   4   90.49    7.90
   1   8   4   82.49    9.20
   1   8   4   81.69    6.50
  -2  -8  -4  818.32   27.90
  -2  -8  -4  745.13   25.20
   2   8   4  785.22   22.30
   2   8   4  833.32   28.30
   2   8   4  780.82   18.20
   2   8   4  799.12   26.10
  -3  -8  -4  640.14   23.90
  -3  -8  -4  659.53   25.40
  -3  -8  -4  626.04   25.50
   3   8   4  666.33   18.00
   3   8   4  688.13   25.30
   3   8   4  669.93   18.10
  -4  -8  -4  155.68   12.90
  -4  -8  -4  160.58   12.40
   4   8   4  158.88   12.90
   4   8   4  157.58   10.40
   4   8   4  177.08    9.40
  -5  -8  -4  184.18   13.80
  -5  -8  -4  176.68   14.60
   5   8   4  175.28   12.20
   5   8   4  201.98   11.30
   5   8   4  186.98   13.60
   5   8   4  193.78   11.00
  -6  -8  -4   14.90    6.30
  -6  -8  -4   16.90    6.20
   6   8   4    9.00    5.10
   6   8   4   17.20    4.50
  -7  -8  -4   51.79    9.50
  -7  -8  -4   20.80    6.40
   7   8   4   35.10    7.80
   7   8   4   39.00    7.70
  -8  -8  -4  173.38   17.60
  -8  -8  -4  163.28   14.70
   8   8   4  170.98   16.30
   8   8   4  165.68   14.20
  -7   9   4  214.88   15.60
  -7   9   4  227.48   17.40
  -6   9   4   21.70    7.00
  -6   9   4   29.80    7.00
  -5   9   4  603.84   22.90
  -5   9   4  572.24   24.90
  -4   9   4    5.40    3.80
  -4   9   4    0.10    4.10
  -4   9   4    2.40    2.30
  -4   9   4   14.80    4.30
   3  -9  -4   31.20    5.50
  -3   9   4   36.80    5.50
  -3   9   4   36.20    6.90
  -3   9   4   37.90    4.90
  -3   9   4   37.10    6.20
   2  -9  -4   26.10    5.50
  -2   9   4   35.50    4.40
  -2   9   4   38.40    4.70
  -2   9   4   22.00    5.50
  -2   9   4   37.10    5.70
  -2   9   4   30.60    4.60
   1  -9  -4  786.12   23.50
  -1   9   4  745.63   17.50
  -1   9   4  756.42   23.40
  -1   9   4  751.42   25.40
  -1   9   4  752.22   23.40
  -1   9   4  792.52   29.70
   0  -9  -4   64.99    7.80
   0  -9  -4   76.49   10.40
   0   9   4   73.29    8.50
   0   9   4   67.29    7.00
   0   9   4   82.09   10.60
   0   9   4   74.29    3.90
   0   9   4   80.89    7.50
   0   9   4   73.49    3.40
  -1  -9  -4  856.91   27.10
  -1  -9  -4  884.51   30.70
   1   9   4  898.51   17.60
   1   9   4  924.71   29.00
   1   9   4  835.72   19.70
   1   9   4  894.61   30.90
   1   9   4  847.02   27.50
  -2  -9  -4   68.79    8.60
  -2  -9  -4   74.89    9.80
   2   9   4   71.79    9.00
   2   9   4   68.49    4.40
   2   9   4   77.79    7.00
  -3  -9  -4    2.70    4.90
  -3  -9  -4   14.10    5.20
   3   9   4    4.00    4.90
   3   9   4    0.00    2.50
   3   9   4    8.80    2.70
  -4  -9  -4    2.80    4.40
  -4  -9  -4   14.90    5.90
   4   9   4    4.70    3.90
   4   9   4    1.60    3.70
   4   9   4    6.20    4.70
  -5  -9  -4  595.34   25.40
  -5  -9  -4  630.34   28.30
   5   9   4  608.04   20.70
   5   9   4  590.84   23.70
   5   9   4  610.24   25.20
  -6  -9  -4   43.80    9.10
  -6  -9  -4   38.20    8.20
   6   9   4   40.10    7.30
   6   9   4   39.30    7.80
  -7  -9  -4  248.88   23.00
  -7  -9  -4  247.28   17.90
   7   9   4  285.37   18.60
   7   9   4  256.07   16.00
  -8  -9  -4   -1.50    8.30
   8   9   4   14.10    7.00
   8   9   4   11.40    5.50
  -7  10   4    6.60    6.10
  -6  10   4   10.50    5.60
  -6  10   4   10.70    6.10
  -5  10   4   59.79    8.40
  -5  10   4   63.49    9.00
  -4  10   4   56.79    7.20
  -4  10   4   48.20   13.50
  -3  10   4  464.75   16.80
  -3  10   4  457.95   19.90
  -3  10   4  428.06   15.80
  -3  10   4  442.96   15.50
  -2  10   4   22.70    3.50
  -2  10   4   15.90    3.60
  -2  10   4   21.40    4.80
  -2  10   4   18.20    6.30
  -2  10   4   21.80    5.10
   1 -10  -4   35.60    6.30
  -1  10   4   26.80    5.20
  -1  10   4   39.60    7.70
  -1  10   4   31.00    3.50
  -1  10   4   41.30    5.90
  -1  10   4   38.10    4.30
   0 -10  -4    4.90    4.60
   0 -10  -4    1.50    5.30
   0  10   4    4.20    4.30
   0  10   4   12.00    1.90
   0  10   4    9.70    1.80
   0  10   4    9.90    3.90
  -1 -10  -4  123.69   10.50
  -1 -10  -4  118.89   13.10
   1  10   4   95.69    8.10
   1  10   4  100.59    3.70
   1  10   4   88.89   10.00
  -2 -10  -4   67.69   11.20
  -2 -10  -4   79.69    9.40
   2  10   4   76.69    4.30
   2  10   4   75.29    7.90
   2  10   4   64.59    9.00
  -3 -10  -4  317.17   20.40
  -3 -10  -4  303.27   17.10
   3  10   4  297.17   10.90
   3  10   4  288.97   10.60
   3  10   4  301.27   15.00
   3  10   4  307.87   17.20
  -4 -10  -4    3.90    4.90
  -4 -10  -4    2.30    5.50
   4  10   4   14.40    5.30
   4  10   4   18.20    4.00
  -5 -10  -4   10.20    5.60
  -5 -10  -4    7.60    6.40
   5  10   4    4.60    3.80
  -6 -10  -4   18.90    7.70
  -6 -10  -4   20.00    7.20
   6  10   4   24.50    5.80
   6  10   4   29.10    7.20
  -7 -10  -4   69.39   13.10
  -7 -10  -4   72.79   11.90
   7  10   4   57.89   10.60
   7  10   4   85.29   10.30
  -6  11   4  251.47   18.90
  -6  11   4  246.68   15.50
  -5  11   4   -6.60    5.00
  -5  11   4   -6.60    3.30
  -4  11   4    5.80    5.00
  -4  11   4   16.80    4.80
  -4  11   4    1.50    3.40
  -3  11   4   12.00    3.60
  -3  11   4   -0.10    3.60
  -3  11   4    2.40    3.60
  -3  11   4    7.70    6.20
  -2  11   4  194.08    8.80
  -2  11   4  204.18   13.60
  -2  11   4  213.38   16.50
  -2  11   4  187.28    8.80
  -1  11   4   -0.80    6.20
  -1  11   4    2.70    1.70
  -1  11   4   -0.70    3.30
  -1  11   4    1.30    1.80
   0  11   4  451.75   10.30
   0  11   4  452.75   23.30
   0  11   4  465.65   18.80
  -1 -11  -4   11.30    5.60
  -1 -11  -4    8.60    5.90
   1  11   4    1.30    4.10
   1  11   4    6.60    4.20
  -2 -11  -4    5.80    7.50
  -2 -11  -4    4.20    4.40
   2  11   4   -3.40    2.80
   2  11   4   -0.80    3.30
   2  11   4   -1.60    1.70
  -3 -11  -4   10.70    6.50
  -3 -11  -4    1.10    4.60
   3  11   4    1.90    2.60
   3  11   4   11.30    2.70
   3  11   4    6.70    4.90
   3  11   4   10.70    4.10
  -4 -11  -4  146.69   13.90
  -4 -11  -4  140.69   14.80
   4  11   4  139.79   12.40
   4  11   4  137.89   11.70
  -5 -11  -4   13.60    6.10
  -5 -11  -4   -3.30    6.70
   5  11   4    4.30    4.10
   5  11   4   -2.50    4.80
  -6 -11  -4  235.18   19.30
  -6 -11  -4  209.78   17.20
   6  11   4  151.78   14.50
   6  11   4  211.98   12.90
  -5  12   4   64.49   10.10
  -4  12   4  150.88   14.40
  -4  12   4  132.89   10.20
  -3  12   4  254.67   11.90
  -3  12   4  260.67   17.10
  -3  12   4  261.57   19.40
  -2  12   4   94.09    6.40
  -2  12   4   88.49    6.20
  -2  12   4  101.69   12.80
  -1  12   4    8.50    2.20
  -1  12   4    2.80    5.00
  -1  12   4    3.20    4.30
  -1  12   4   11.30    2.40
   0 -12  -4   38.80    6.80
   0  12   4   49.30    9.40
   0  12   4   53.49    7.60
  -1 -12  -4  135.79   13.00
  -1 -12  -4  127.99   14.70
   1  12   4  128.39   10.70
   1  12   4  133.49   15.10
  -2 -12  -4  297.77   21.40
  -2 -12  -4  324.37   19.20
   2  12   4  336.17   18.40
   2  12   4  294.97    8.70
   2  12   4  316.37   16.60
  -3 -12  -4  201.28   15.60
  -3 -12  -4  220.28   18.40
   3  12   4  211.48   13.80
   3  12   4  204.98   23.30
   3  12   4  205.08    8.80
  -4 -12  -4   42.90   10.00
  -4 -12  -4   30.50    7.70
   4  12   4   26.60    7.10
   4  12   4   30.50    8.00
   4  12   4   37.90    5.40
  -5 -12  -4    1.80    6.20
   5  12   4   -7.00    3.60
   5  12   4   -6.00    4.20
  -3  13   4   81.59   11.60
  -3  13   4   45.00    9.70
  -2  13   4   18.60    6.10
  -2  13   4   21.40    6.80
  -1  13   4  229.38   18.10
  -1  13   4  197.48   14.10
   0  13   4   11.00    5.90
   0  13   4    3.70    4.40
  -1 -13  -4   20.40    8.20
  -1 -13  -4   16.40    6.80
   1  13   4   15.70    5.80
   1  13   4   12.20    6.10
  -2 -13  -4   -8.50    6.70
   2  13   4   -9.30    3.40
   2  13   4   -2.50    4.20
  -3 -13  -4  108.89   12.20
   3  13   4   93.49   11.20
   3  13   4  112.39   10.40
   3  11  -5  -11.00    4.40
   2  11  -5   26.90    8.30
   2  11  -5   29.10    7.40
  -2 -11   5   38.70   11.30
   1  11  -5   40.00   10.00
   1  11  -5   30.90    6.40
   0  11  -5  231.78   20.40
   0  11  -5  222.08   17.80
  -1  11  -5   15.70    7.70
  -1  11  -5   22.70    6.30
  -2  11  -5   96.39   11.20
  -2  11  -5  106.79   14.50
  -3  11  -5    2.20    6.40
  -3  11  -5   -2.70    5.60
   4  10  -5   65.49   10.20
  -4 -10   5   72.39   12.20
   3  10  -5   97.39   13.80
   3  10  -5   91.19   10.20
  -3 -10   5  124.29   15.60
   2  10  -5   63.29   12.50
  -2 -10   5   39.90   10.00
   1  10  -5   78.29   12.80
   1  10  -5   92.39   11.10
  -1 -10   5   81.29   13.50
   0  10  -5   -0.80    6.00
   0  10  -5    8.90    4.60
  -1  10  -5   37.60    9.10
  -1  10  -5   31.70    6.70
  -2  10  -5  118.09   14.70
  -3  10  -5  129.49   12.40
  -4  10  -5   40.00    9.90
  -4  10  -5   57.59    9.10
  -5  10  -5   45.40    8.70
  -5  10  -5   37.90   10.80
   6   9  -5    0.80    5.20
   5   9  -5  130.79   12.90
  -5  -9   5  139.89   15.80
   4   9  -5   21.20    5.90
  -4  -9   5   19.50    7.30
  -3  -9   5    7.50    8.00
   2   9  -5   11.30    6.40
   2   9  -5    7.80    5.00
  -2  -9   5   -6.30    5.20
   1   9  -5  125.49   11.70
   1   9  -5  142.19   15.20
  -1  -9   5  129.19   16.10
   0   9  -5   23.90    9.00
   0   9  -5   48.60    7.80
  -1   9  -5  191.78   13.60
  -1   9  -5  192.58   17.30
  -2   9  -5   47.10    5.10
  -2   9  -5   57.59    8.50
  -2   9  -5   48.90    9.80
  -3   9  -5    2.60    5.70
  -3   9  -5    2.30    3.20
   3  -9   5   -1.20    2.10
   3  -9   5   -0.20    2.40
  -4   9  -5   -1.80    6.40
  -4   9  -5    1.30    4.80
  -4   9  -5   -2.60    3.50
  -5   9  -5  165.98   14.50
  -5   9  -5  171.78   17.10
   5  -9   5  180.08   10.00
  -6   9  -5   46.10    9.90
  -6   9  -5   25.70    6.90
   6  -9   5    6.90    5.40
   6   8  -5    3.90    6.50
  -6  -8   5    2.20    4.80
  -6  -8   5   -3.80    6.00
   5   8  -5   14.00    7.10
  -5  -8   5    8.60    4.80
  -5  -8   5   -1.20    5.20
  -5  -8   5    6.90    4.10
  -4  -8   5  459.85   25.20
  -4  -8   5  510.75   16.00
   3   8  -5  133.79   12.10
  -3  -8   5  148.89    7.70
  -3  -8   5  144.19   15.10
   2   8  -5  164.98   12.20
  -2  -8   5  135.99    6.60
  -2  -8   5  141.29    6.70
  -2  -8   5  141.89   14.90
   1   8  -5   43.40    8.10
   1   8  -5   24.30    7.40
  -1  -8   5   31.70    8.60
  -1  -8   5   32.80    3.70
  -1  -8   5   35.40    3.70
   0   8  -5  131.69   11.10
   0   8  -5  143.69   14.50
   0  -8   5  121.59    5.80
   0  -8   5  127.29    5.90
  -1   8  -5   96.19   13.20
  -1   8  -5   85.69   10.50
   1  -8   5   96.89    5.70
   1  -8   5   91.49    5.50
  -2   8  -5  643.84   29.20
  -2   8  -5  638.14   25.00
  -2   8  -5  643.84   18.30
   2  -8   5  672.63   20.30
   2  -8   5  688.73   17.90
  -3   8  -5   93.19    7.80
  -3   8  -5  107.89   10.30
  -3   8  -5   95.19   12.40
   3  -8   5   98.89    7.80
  -4   8  -5   65.49   11.40
  -4   8  -5   49.30    7.20
  -4   8  -5   70.99    9.60
   4  -8   5   62.29    6.90
   4  -8   5   72.69    8.20
  -5   8  -5   35.70    8.90
  -5   8  -5   44.70    7.80
   5  -8   5   49.80    6.80
  -6   8  -5   61.29   11.50
  -6   8  -5   59.89    9.80
   6  -8   5   68.39    8.20
  -7   8  -5   10.20    7.00
   7  -8   5    5.90    4.80
   7   7  -5   38.10   11.10
  -7  -7   5   36.40    8.50
  -7  -7   5   41.20    9.80
   6   7  -5  298.57   18.50
  -6  -7   5  332.27   21.00
  -6  -7   5  315.07   16.60
  -6  -7   5  287.97   11.80
   5   7  -5   27.50    7.50
  -5  -7   5   44.20    6.60
  -5  -7   5   54.49   10.70
   4   7  -5   -4.20    4.70
  -4  -7   5    3.40    4.00
  -4  -7   5   -4.20    4.70
  -4  -7   5   -4.00    3.70
   3   7  -5   42.20    7.40
  -3  -7   5   27.30    7.80
  -3  -7   5   48.10    6.10
  -3  -7   5   40.30    5.30
   2   7  -5  485.25   20.00
  -2  -7   5  471.45   24.40
  -2  -7   5  504.05   16.50
  -2  -7   5  483.15   15.30
   1   7  -5   72.99    8.70
   1   7  -5   67.29   13.00
  -1  -7   5   75.39    6.10
  -1  -7   5   73.99    5.90
  -1  -7   5   67.49   10.90
   0   7  -5  984.90   30.80
   0   7  -5  968.60   30.20
   0  -7   5  943.61   23.50
   0  -7   5  956.50   23.50
  -1   7  -5   11.20    2.10
  -1   7  -5   13.40    5.00
   1  -7   5   17.00    4.00
   1  -7   5   17.20    3.70
  -2   7  -5   17.10    6.70
  -2   7  -5   17.50    6.10
  -2   7  -5   18.80    3.60
   2  -7   5   21.00    4.60
  -3   7  -5    6.60    5.80
  -3   7  -5    5.90    4.10
  -3   7  -5   10.90    5.40
   3  -7   5   14.40    4.50
   3  -7   5   17.10    4.50
  -4   7  -5  427.96   18.40
  -4   7  -5  424.16   19.90
  -4   7  -5  466.45   24.30
   4  -7   5  478.95   17.20
   4  -7   5  438.46   17.90
  -5   7  -5   23.40    7.30
  -5   7  -5   20.40    5.90
   5  -7   5   15.60    5.10
   5  -7   5   24.90    6.30
  -6   7  -5  252.47   19.10
  -6   7  -5  228.18   16.60
   6  -7   5  244.48   14.50
  -7   7  -5   24.40    7.70
  -7   7  -5   22.50    8.10
   7  -7   5   36.30    7.40
  -8   7  -5   13.80    6.60
   8  -7   5    3.70    5.70
   8   6  -5   31.20    8.90
  -8  -6   5   21.90    7.80
  -8  -6   5   38.10    9.40
   7   6  -5   59.49   10.30
  -7  -6   5   70.09    9.70
  -7  -6   5   54.89    9.90
   6   6  -5   -3.40    4.30
  -6  -6   5   -8.70    3.50
  -6  -6   5   10.30    6.30
  -6  -6   5   10.00    5.90
   5   6  -5  101.09   11.70
  -5  -6   5   89.99   11.90
  -5  -6   5  105.79   10.30
  -5  -6   5   87.49    8.80
   4   6  -5   56.99    8.80
  -4  -6   5   38.00    7.70
  -4  -6   5   55.79    7.30
  -3  -6   5  765.02   22.40
  -3  -6   5  740.03   28.60
  -3  -6   5  786.02   23.60
   2   6  -5  122.59   12.20
   2   6  -5  117.09    9.80
  -2  -6   5  106.89    7.60
  -2  -6   5  120.89    8.20
  -2  -6   5   99.49   12.50
   1   6  -5  141.09   10.80
   1   6  -5  149.59   11.40
  -1  -6   5  140.89   12.50
  -1  -6   5  158.58    8.70
   0   6  -5   -0.10    3.90
   0   6  -5   -7.00    3.80
   0   6  -5    2.00    4.40
   0  -6   5   -3.80    2.50
   0  -6   5    3.80    3.90
  -1   6  -5  206.78   12.20
  -1   6  -5  209.08    7.80
  -1   6  -5  189.68   14.60
  -1   6  -5  222.18   13.40
   1  -6   5  207.58   10.50
  -2   6  -5  109.69    9.90
  -2   6  -5   98.69    8.60
  -2   6  -5   82.69   10.80
  -2   6  -5   80.99    6.50
   2  -6   5  102.09    8.40
   2  -6   5   88.89    7.40
  -3   6  -5  799.12   30.00
  -3   6  -5  734.93   26.00
  -3   6  -5  746.13   22.80
   3  -6   5  761.12   23.00
   3  -6   5  776.52   24.10
  -4   6  -5   80.49    9.90
  -4   6  -5   95.79    9.60
  -4   6  -5   78.69   11.10
   4  -6   5   97.29    8.90
   4  -6   5   79.19    7.90
  -5   6  -5   32.70    8.10
  -5   6  -5   27.20    6.60
   5  -6   5   33.00    6.70
   5  -6   5   28.10    7.30
  -6   6  -5    9.20    5.50
  -6   6  -5    8.30    5.60
  -7   6  -5  141.69   16.30
  -7   6  -5  153.48   13.70
   7  -6   5  126.79   11.20
  -8   6  -5    8.80    7.50
  -8   6  -5    9.90    7.60
   8  -6   5   12.40    5.80
   8   5  -5   79.79   12.70
  -8  -5   5   67.49   10.80
   7   5  -5  284.47   18.10
  -7  -5   5  258.67   16.30
  -7  -5   5  226.48   14.70
  -7  -5   5  277.87   19.20
   6   5  -5   79.99   11.30
  -6  -5   5   69.89    9.60
  -6  -5   5   74.49    8.50
   5   5  -5  109.69   12.90
  -5  -5   5   80.29    7.00
  -5  -5   5   80.59   10.10
  -5  -5   5   81.59   11.20
   4   5  -5   22.10    6.30
  -4  -5   5   14.30    2.90
  -4  -5   5    9.10    5.30
  -4  -5   5   29.90    5.80
  -4  -5   5   22.30    5.50
   3   5  -5  209.98   12.60
  -3  -5   5  217.58   12.50
  -3  -5   5  214.08   14.00
  -3  -5   5  199.18   11.20
  -3  -5   5  212.38    5.60
   2   5  -5  303.07   14.60
   2   5  -5  273.07   14.20
   2   5  -5  279.37   16.20
  -2  -5   5  292.57   13.50
  -2  -5   5  279.47   12.50
  -2  -5   5  304.47   16.30
   1   5  -5  887.81   27.30
   1   5  -5  920.11   30.00
   1   5  -5  901.81   27.70
  -1  -5   5  886.61   24.50
  -1  -5   5  921.61   30.70
  -1  -5   5  915.21   25.20
   0   5  -5  293.57   14.90
   0   5  -5  304.37   17.30
   0   5  -5  301.17   15.80
   0  -5   5  306.97   12.70
  -1   5  -5   -1.60    3.50
  -1   5  -5    3.20    4.30
  -1   5  -5    1.10    1.90
  -1   5  -5   -0.20    3.00
  -1   5  -5   10.50    5.40
   1  -5   5    9.80    3.90
  -2   5  -5   24.90    6.50
  -2   5  -5   29.70    6.40
  -2   5  -5   32.90    6.30
  -2   5  -5   21.80    3.90
  -2   5  -5   29.50    5.30
   2  -5   5   27.10    4.30
   2  -5   5   32.00    5.30
   2  -5   5   30.40    5.40
  -3   5  -5  257.87   14.30
  -3   5  -5  241.88   12.00
  -3   5  -5  245.58   15.70
   3  -5   5  241.58   12.20
   3  -5   5  256.37   13.70
   3  -5   5  245.98   13.00
  -4   5  -5  397.66   18.50
  -4   5  -5  396.06   17.60
  -4   5  -5  473.35   21.90
   4  -5   5  404.86   17.30
   4  -5   5  452.65   17.70
  -5   5  -5  529.45   22.60
  -5   5  -5  558.44   25.00
   5  -5   5  535.05   20.70
  -6   5  -5   67.79    9.60
  -6   5  -5   57.89    9.50
  -7   5  -5    8.00    5.70
  -7   5  -5   14.70    7.60
   7  -5   5   11.50    5.10
   8  -5   5   11.00    6.60
  -9   5  -5   85.99    9.60
  -9   5  -5  107.79   15.80
   9  -5   5   79.59   11.40
  -9  -4   5   13.60    6.70
  -9  -4   5    8.80    6.70
  -8  -4   5   45.40    9.00
  -8  -4   5   34.60    8.50
   7   4  -5   18.60    7.00
  -7  -4   5   27.30    7.20
  -7  -4   5   20.90    6.40
   6   4  -5  139.19   12.30
  -6  -4   5  155.48   13.50
   5   4  -5   85.09   10.40
  -5  -4   5   88.99   10.00
  -5  -4   5   90.99    8.30
  -5  -4   5   81.99    9.20
   4   4  -5  940.51   29.10
  -4  -4   5  918.61   28.90
  -4  -4   5  929.31   29.90
  -4  -4   5  865.51   26.80
  -4  -4   5  888.31   23.00
   3   4  -5   93.09    8.70
   3   4  -5   66.09    8.20
   3   4  -5   71.19    8.70
   3   4  -5   70.49    7.80
  -3  -4   5   94.79    9.50
  -3  -4   5   83.89    8.00
  -3  -4   5   93.89    9.40
  -3  -4   5   80.79    5.10
   2   4  -5  107.49    8.90
   2   4  -5  113.69    9.90
   2   4  -5  117.89    9.60
  -2  -4   5  105.99    8.20
  -2  -4   5  132.09    9.20
  -2  -4   5  113.79    4.40
  -2  -4   5  117.29    4.40
  -2  -4   5  120.69    9.90
   1   4  -5   29.90    5.40
   1   4  -5   17.90    4.80
   1   4  -5   19.80    5.80
  -1  -4   5   18.10    5.00
  -1  -4   5   29.10    5.60
  -1  -4   5   14.50    4.50
   0   4  -5  914.51   28.40
   0   4  -5  897.31   27.40
   0   4  -5  961.90   30.20
   0   4  -5  863.31   26.30
   0  -4   5  891.51   25.20
   0  -4   5  937.61   28.90
   0  -4   5  933.81   19.50
  -1   4  -5  123.09    8.80
  -1   4  -5  139.39   12.10
  -1   4  -5  149.59   11.80
  -1   4  -5  122.19   10.10
  -1   4  -5  128.99    6.70
   1  -4   5  150.38    9.70
   1  -4   5  143.39    7.10
   1  -4   5  145.99    9.10
  -2   4  -5 2032.20   43.10
  -2   4  -5 2036.50   47.20
  -2   4  -5 2039.30   49.99
  -2   4  -5 2010.40   47.80
  -2   4  -5 1988.50   50.49
   2  -4   5 2067.49   45.00
   2  -4   5 1981.70   46.30
   2  -4   5 1975.80   43.10
  -3   4  -5    3.40    3.10
  -3   4  -5   -1.20    3.70
  -3   4  -5    1.30    2.50
  -3   4  -5    4.20    4.10
   3  -4   5   -4.90    3.20
   3  -4   5   -1.30    2.80
   3  -4   5    2.70    4.40
  -4   4  -5    6.90    4.60
  -4   4  -5    3.10    3.90
  -4   4  -5    2.30    3.50
   4  -4   5    4.30    3.50
   4  -4   5   -2.00    2.80
   4  -4   5   -3.20    3.30
  -5   4  -5  222.58   14.90
  -5   4  -5  247.68   15.80
   5  -4   5  231.78   14.60
   5  -4   5  234.48   13.60
  -6   4  -5  313.67   19.40
  -6   4  -5  263.47   16.60
   6  -4   5  282.47   17.80
  -7   4  -5   33.90    8.50
  -7   4  -5   37.30    9.10
   7  -4   5   33.50    7.80
  -8   4  -5  413.36   22.50
  -8   4  -5  346.17   18.30
  -8   4  -5  395.96   23.30
   8  -4   5  408.86   21.00
  -9   4  -5   -5.00    4.50
  -9   4  -5    0.10    6.30
  -9   4  -5   15.70    8.60
   9  -4   5    7.10    7.50
   9   3  -5    8.10    7.10
  -9  -3   5    5.90    5.30
   8   3  -5  139.99   14.30
  -8  -3   5  126.59   13.60
  -8  -3   5  123.69   12.60
   7   3  -5  144.49   13.40
  -7  -3   5  152.98   14.00
  -7  -3   5  153.08   13.30
   6   3  -5  372.96   19.20
  -6  -3   5  380.26   19.40
  -6  -3   5  374.86   17.40
  -6  -3   5  377.26   22.40
   5   3  -5   57.49    6.70
   5   3  -5   57.09    8.40
  -5  -3   5   56.39    8.00
  -5  -3   5   46.30    7.60
  -5  -3   5   61.59    6.90
   4   3  -5   28.60    4.90
   4   3  -5   27.90    6.30
   4   3  -5   22.70    5.90
  -4  -3   5   29.20    6.40
  -4  -3   5   30.60    6.10
  -4  -3   5   29.20    6.00
  -4  -3   5   20.10    4.00
   3   3  -5  206.78   12.50
   3   3  -5  229.88   12.70
   3   3  -5  221.98   12.30
  -3  -3   5  241.88   12.00
  -3  -3   5  221.88   12.60
  -3  -3   5  214.38   12.60
  -3  -3   5  220.88   10.70
   2   3  -5  605.94   20.40
   2   3  -5  558.44   23.60
   2   3  -5  599.34   19.90
   2   3  -5  580.94   20.40
  -2  -3   5  611.74   20.90
  -2  -3   5  598.84   19.30
  -2  -3   5  615.64   20.60
  -2  -3   5  609.74   15.80
   1   3  -5  674.73   22.20
   1   3  -5  684.03   22.50
   1   3  -5  687.13   22.30
  -1  -3   5  683.53   16.20
  -1  -3   5  720.43   22.30
  -1  -3   5  661.23   32.10
  -1  -3   5  675.33   20.60
   0   3  -5  704.43   23.10
   0   3  -5  783.92   18.90
   0   3  -5  763.02   24.10
   0   3  -5  756.02   23.70
   0   3  -5  751.82   24.90
   0  -3   5  763.92   17.90
  -1   3  -5   47.70    6.20
  -1   3  -5   50.49    7.00
  -1   3  -5   47.90    6.80
  -1   3  -5   48.10    6.80
   1  -3   5   50.29    6.20
   1  -3   5   45.30    6.00
   1  -3   5   40.50    5.00
  -2   3  -5   12.40    4.90
  -2   3  -5   12.20    4.50
  -2   3  -5   14.40    4.00
  -2   3  -5    8.50    3.50
  -2   3  -5    9.80    4.20
   2  -3   5    4.00    3.20
   2  -3   5    8.40    3.30
   2  -3   5    9.60    4.80
   2  -3   5    4.70    4.30
  -3   3  -5  279.47   14.50
  -3   3  -5  243.18   12.40
  -3   3  -5  251.57   12.50
  -3   3  -5  271.07   14.10
   3  -3   5  267.67   15.70
   3  -3   5  256.37   16.00
   3  -3   5  262.97   13.10
   3  -3   5  266.87   12.80
  -4   3  -5  555.34   23.30
  -4   3  -5  511.95   29.00
  -4   3  -5  538.85   20.50
  -4   3  -5  533.95   21.60
   4  -3   5  556.44   20.80
   4  -3   5  525.05   19.30
   4  -3   5  527.25   19.60
   4  -3   5  535.25   20.80
  -5   3  -5  692.03   24.80
  -5   3  -5  684.03   25.70
   5  -3   5  660.13   23.90
   5  -3   5  686.93   25.40
  -6   3  -5  142.89   12.40
  -6   3  -5  119.69   14.90
   6  -3   5  153.48   13.10
   6  -3   5  140.29   11.80
  -7   3  -5    0.80    4.60
  -7   3  -5   12.50    6.40
   7  -3   5    0.80    5.30
   7  -3   5   -3.00    3.90
  -8   3  -5   34.00    8.30
  -8   3  -5    8.70    5.90
  -8   3  -5   20.90    6.10
   8  -3   5   17.50    6.60
   8  -3   5   25.60    7.50
  -9   3  -5   15.00    6.40
  -9   3  -5   42.20    9.00
   9   2  -5   88.19   14.50
  -9  -2   5  139.39   14.80
  -9  -2   5  111.69   13.80
   8   2  -5    9.70    6.30
  -8  -2   5   15.40    5.60
  -8  -2   5   14.40    6.30
   7   2  -5   82.59    8.30
   7   2  -5  102.39   11.70
  -7  -2   5   93.39   11.70
  -7  -2   5  100.09   11.80
   6   2  -5   -1.60    3.20
   6   2  -5   -8.60    3.80
  -6  -2   5    5.80    6.70
  -6  -2   5    3.70    5.20
  -6  -2   5    0.70    3.50
   5   2  -5  929.21   29.30
  -5  -2   5  868.81   27.90
  -5  -2   5  882.71   28.70
  -5  -2   5  844.02   25.80
   4   2  -5    0.80    3.60
   4   2  -5   -1.00    2.20
  -4  -2   5    2.70    2.90
  -4  -2   5   -1.70    2.80
  -4  -2   5   -0.70    2.80
  -4  -2   5   -1.90    3.20
   3   2  -5  569.34   20.30
   3   2  -5  542.25   17.80
   3   2  -5  590.04   20.50
   3   2  -5  551.64   19.20
  -3  -2   5  547.75   19.20
  -3  -2   5  600.04   20.80
  -3  -2   5  568.74   22.10
   2   2  -5    6.40    3.90
   2   2  -5    4.80    3.80
   2   2  -5   -3.90    3.30
  -2  -2   5    1.00    3.60
  -2  -2   5    5.40    3.70
  -2  -2   5    6.60    3.50
   1   2  -5  558.54   19.10
   1   2  -5  511.65   17.40
   1   2  -5  556.24   19.30
  -1  -2   5  534.75   18.10
  -1  -2   5  544.95   22.00
  -1  -2   5  570.04   15.50
  -1  -2   5  543.75   17.70
   0   2  -5    4.20    2.60
   0   2  -5    4.00    3.40
   0   2  -5    9.80    4.40
   0  -2   5   16.00    4.60
   0  -2   5    3.90    2.90
   0  -2   5   11.80    5.10
  -1   2  -5 1482.35   32.80
  -1   2  -5 1553.04   36.80
  -1   2  -5 1466.05   35.50
  -1   2  -5 1480.25   37.10
  -1   2  -5 1477.45   41.50
   1  -2   5 1478.75   32.90
   1  -2   5 1530.85   36.60
  -2   2  -5    3.30    3.30
  -2   2  -5   -4.90    2.00
  -2   2  -5   -4.00    5.70
  -2   2  -5   -0.20    4.30
   2  -2   5    1.00    3.30
   2  -2   5   -3.20    3.90
   2  -2   5   -3.20    3.20
   2  -2   5   -0.80    2.70
  -3   2  -5  166.78   10.70
  -3   2  -5  197.58   11.50
  -3   2  -5  164.68   10.30
   3  -2   5  171.38   10.90
   3  -2   5  162.88   10.60
   3  -2   5  171.18   10.20
   3  -2   5  163.28   12.80
  -4   2  -5   84.49    8.30
  -4   2  -5   80.49    9.20
  -4   2  -5   75.09   13.10
  -4   2  -5   80.09    7.20
   4  -2   5   69.09    7.80
   4  -2   5   74.39    7.60
   4  -2   5   82.19    9.40
   4  -2   5   69.19    7.60
  -5   2  -5  537.15   21.00
  -5   2  -5  505.35   21.40
  -5   2  -5  498.35   24.40
   5  -2   5  566.44   21.20
   5  -2   5  537.85   22.30
  -6   2  -5   13.60    5.40
   6  -2   5    8.10    4.70
   6  -2   5   11.00    5.10
  -7   2  -5  680.53   24.30
  -7   2  -5  628.74   25.90
  -7   2  -5  619.14   26.60
   7  -2   5  627.24   27.70
   7  -2   5  654.63   25.90
  -8   2  -5   38.00    7.10
  -8   2  -5   28.60    7.00
  -8   2  -5   33.20    8.00
   8  -2   5   22.80    7.40
   8  -2   5   27.20    7.40
  -9   2  -5   11.70    8.40
  -9   2  -5   18.80    7.00
 -10   2  -5    2.00    6.80
 -10   2  -5   -6.00    4.30
   9   1  -5  170.28   17.10
  -9  -1   5  184.88   16.00
  -9  -1   5  169.38   15.00
   8   1  -5  158.58   10.50
   8   1  -5  141.29   14.10
  -8  -1   5  152.58   13.50
  -8  -1   5  191.78   15.70
   7   1  -5  117.99   12.20
  -7  -1   5  116.39   11.40
  -7  -1   5  132.09   12.90
   6   1  -5   77.49   10.00
   6   1  -5   74.99    6.90
  -6  -1   5   65.29    8.30
   5   1  -5   51.39    7.60
   5   1  -5   60.19    6.10
  -5  -1   5   51.49    7.80
  -5  -1   5   54.59    7.40
   4   1  -5   83.59    6.60
   4   1  -5   84.79    8.90
   4   1  -5   63.29    7.20
   4   1  -5   85.29    8.70
  -4  -1   5   82.19    8.00
  -4  -1   5   72.79    8.20
  -4  -1   5   85.39    8.00
   3   1  -5 1243.18   32.40
   3   1  -5 1214.88   29.20
   3   1  -5 1235.08   30.50
  -3  -1   5 1234.18   32.10
  -3  -1   5 1209.68   32.10
  -3  -1   5 1244.98   30.00
   2   1  -5  784.22   23.70
   2   1  -5  810.42   21.80
   2   1  -5  820.62   24.00
  -2  -1   5  823.52   24.30
  -2  -1   5  819.42   21.60
  -2  -1   5  828.62   23.90
   1   1  -5  344.17   14.50
   1   1  -5  333.37   16.50
   1   1  -5  328.77   14.40
  -1  -1   5  339.97   12.50
  -1  -1   5  354.56   14.40
  -1  -1   5  335.97   12.70
  -1  -1   5  357.36   17.40
   0   1  -5  563.54   19.00
   0   1  -5  575.64   19.50
   0   1  -5  523.55   18.20
   0  -1   5  529.95   18.10
   0  -1   5  507.75   15.80
   0  -1   5  496.55   17.40
  -1   1  -5 1911.21   41.00
  -1   1  -5 1831.32   41.40
  -1   1  -5 1902.91   40.60
  -1   1  -5 1877.91   41.80
  -1   1  -5 1855.11   42.80
   1  -1   5 1862.41   42.40
   1  -1   5 1828.82   40.40
   1  -1   5 1940.31   42.10
  -2   1  -5    7.00    3.30
  -2   1  -5   11.80    4.20
  -2   1  -5    4.10    3.80
  -2   1  -5    4.70    3.40
   2  -1   5    2.80    3.60
   2  -1   5    8.90    3.20
   2  -1   5    4.20    3.40
   2  -1   5    3.00    3.50
  -3   1  -5 1592.04   38.30
  -3   1  -5 1555.24   37.70
  -3   1  -5 1639.24   38.30
  -3   1  -5 1571.74   37.40
   3  -1   5 1604.84   38.00
   3  -1   5 1540.65   37.60
   3  -1   5 1567.74   38.40
   3  -1   5 1583.64   37.30
  -4   1  -5  430.36   17.40
  -4   1  -5  430.56   16.90
  -4   1  -5  489.95   18.10
  -4   1  -5  427.56   26.80
   4  -1   5  427.26   16.80
   4  -1   5  450.25   17.20
   4  -1   5  452.35   17.70
   4  -1   5  456.05   18.60
  -5   1  -5   58.79    7.50
  -5   1  -5   61.19    8.30
  -5   1  -5   87.09    8.70
   5  -1   5   78.59    8.40
   5  -1   5   72.19    9.10
   5  -1   5   66.29    8.00
  -6   1  -5  177.58   11.80
  -6   1  -5  179.58   13.10
  -6   1  -5  177.08   12.90
   6  -1   5  174.48   12.50
   6  -1   5  171.28   14.10
  -7   1  -5  325.47   18.00
  -7   1  -5  281.67   15.20
   7  -1   5  248.38   17.50
   7  -1   5  313.17   17.60
  -8   1  -5   84.79    9.60
  -8   1  -5   84.99   11.30
  -8   1  -5  103.79   12.80
   8  -1   5  106.09   13.50
   8  -1   5   90.39   11.80
  -9   1  -5  133.49   15.60
  -9   1  -5  139.49   12.50
  -9   1  -5  134.79   14.70
   9  -1   5  129.19   15.70
   9  -1   5  144.49   18.00
 -10   1  -5   72.59   11.70
 -10   1  -5   97.59   10.90
   9   0  -5    0.10    6.20
  -9   0   5   -0.30    5.50
  -9   0   5   -1.80    4.50
   8   0  -5   44.90    9.50
   8   0  -5   38.40    5.70
  -8   0   5   52.19   10.00
  -8   0   5   51.29    8.60
   7   0  -5    1.10    4.90
   7   0  -5   -0.60    3.00
  -7   0   5   -0.80    4.80
  -7   0   5   -2.00    3.50
   6   0  -5  982.80   24.50
  -6   0   5  950.80   29.70
   5   0  -5    2.80    4.40
   5   0  -5   -0.60    2.30
  -5   0   5    4.00    3.50
  -5   0   5    4.50    4.10
   4   0  -5 1323.17   29.90
   4   0  -5 1376.56   36.40
   4   0  -5 1381.16   35.80
   4   0  -5 1316.97   34.90
  -4   0   5 1314.17   34.90
  -4   0   5 1321.47   32.10
  -4   0   5 1350.06   35.70
   3   0  -5    1.10    2.50
   3   0  -5    3.50    4.20
   3   0  -5    0.50    3.30
   3   0  -5   -2.70    2.80
  -3   0   5   -2.10    2.80
  -3   0   5   -1.40    3.40
  -3   0   5    0.90    2.20
   2   0  -5   15.70    3.30
   2   0  -5   11.70    5.20
   2   0  -5   14.00    4.30
  -2   0   5   22.10    4.80
  -2   0   5   21.00    5.00
  -2   0   5   14.00    3.00
   1   0  -5    1.80    2.20
   1   0  -5    2.90    4.80
   1   0  -5    8.50    4.20
  -1   0   5   -2.10    3.40
  -1   0   5    1.10    4.50
  -1   0   5    1.70    2.50
  -1   0   5   -0.90    3.70
   0   0  -5 3538.05   69.39
   0   0  -5 3552.54   68.89
   0   0  -5 3548.74   64.39
   0   0  -5 3439.06   68.89
   0   0   5 3405.16   68.89
   0   0   5 3353.96   67.99
   0   0   5 3447.86   69.09
  -1   0  -5    0.00    3.30
  -1   0  -5   -1.70    2.80
  -1   0  -5    1.70    3.70
  -1   0  -5   -2.30    2.90
   1   0   5   -0.10    3.00
   1   0   5    5.60    3.90
   1   0   5    5.40    4.20
  -2   0  -5 4385.26   84.99
  -2   0  -5 4585.04   88.29
  -2   0  -5 4676.63   92.29
  -2   0  -5 4547.65   87.59
   2   0   5 4581.94   85.09
   2   0   5 4758.22   93.09
   2   0   5 4546.35   87.49
   2   0   5 4546.85   88.49
  -3   0  -5    3.00    3.30
  -3   0  -5   -0.30    3.30
  -3   0  -5   -6.50    2.90
  -3   0  -5   -5.20    3.00
   3   0   5    7.30    4.00
   3   0   5   -0.90    3.10
   3   0   5    0.90    3.40
   3   0   5   -1.80    2.90
  -4   0  -5  173.68   10.50
  -4   0  -5  153.88   10.20
  -4   0  -5  155.98   11.80
   4   0   5  148.19   10.30
   4   0   5  159.08    9.80
   4   0   5  142.09    9.50
   4   0   5  157.98   11.50
  -5   0  -5   -0.30    2.90
  -5   0  -5    5.90    3.90
  -5   0  -5    4.80    4.10
  -5   0  -5    7.20    4.10
  -5   0  -5    2.40    3.90
   5   0   5   -2.90    3.40
   5   0   5   -0.60    3.70
  -6   0  -5  918.01   28.40
  -6   0  -5  903.01   29.40
  -6   0  -5  892.81   29.40
   6   0   5  933.21   30.80
   6   0   5  943.01   32.70
  -7   0  -5   -4.80    3.70
  -7   0  -5    8.20    5.00
  -7   0  -5   -7.70    3.50
   7   0   5   -3.20    4.00
   7   0   5    8.60    5.10
  -8   0  -5  406.86   20.70
  -8   0  -5  421.46   19.70
  -8   0  -5  387.06   21.20
   8   0   5  383.26   22.70
   8   0   5  437.96   22.80
  -9   0  -5   -8.20    4.30
  -9   0  -5    6.10    6.00
  -9   0  -5   -3.20    5.30
   9   0   5   -8.20    5.20
   9   0   5   16.20    6.60
 -10   0  -5    9.20    6.70
 -10   0  -5   17.10    5.60
 -10   0  -5    3.00    6.80
   9  -1  -5  195.88   17.60
  -9   1   5  231.98   17.70
  -9   1   5  186.78   15.20
   8  -1  -5  189.18   15.20
  -8   1   5  203.18   15.70
  -8   1   5  164.78   13.30
   7  -1  -5   95.19    6.00
   7  -1  -5   83.79    9.80
  -7   1   5   88.19   10.80
  -7   1   5  102.29    9.90
   6  -1  -5   42.40    7.50
   6  -1  -5   28.30    3.40
  -6   1   5   25.10    5.50
   5  -1  -5  177.38   12.60
   5  -1  -5  187.58    7.80
   5  -1  -5  188.88   12.30
  -5   1   5  182.38   12.20
  -5   1   5  190.78   10.60
   4  -1  -5  174.38   11.10
   4  -1  -5  148.79   10.10
   4  -1  -5  168.98   11.60
  -4   1   5  162.48   10.60
  -4   1   5  155.78   10.10
  -4   1   5  163.98    9.10
   3  -1  -5 2196.58   48.20
   3  -1  -5 2203.38   48.40
  -3   1   5 2283.47   49.50
  -3   1   5 2133.39   43.70
  -3   1   5 2164.18   48.60
   2  -1  -5  814.42   23.00
   2  -1  -5  856.21   22.50
  -2   1   5  870.61   27.10
  -2   1   5  851.41   24.00
  -2   1   5  801.02   18.30
   1  -1  -5   64.69    3.60
   1  -1  -5   85.49    7.90
   1  -1  -5   59.29    6.40
  -1   1   5   67.49    3.70
  -1   1   5   63.99    7.10
  -1   1   5   62.29    6.90
   0  -1  -5  154.78    5.70
   0  -1  -5  147.89    9.40
   0  -1  -5  150.98    8.90
   0  -1  -5  139.69    9.10
   0   1   5  148.59   10.50
   0   1   5  149.49    9.50
   0   1   5  157.08    9.70
  -1  -1  -5 2280.97   48.60
  -1  -1  -5 2278.67   47.30
  -1  -1  -5 2325.07   43.60
  -1  -1  -5 2348.86   49.99
   1   1   5 2234.28   49.30
   1   1   5 2269.07   47.30
   1   1   5 2197.98   48.10
  -2  -1  -5  187.48    8.10
  -2  -1  -5  190.78    9.80
  -2  -1  -5  201.88   11.10
  -2  -1  -5  195.48    9.90
   2   1   5  184.18   11.00
   2   1   5  199.08   11.70
   2   1   5  200.18    8.10
   2   1   5  197.88   10.50
  -3  -1  -5 1156.78   27.80
  -3  -1  -5 1117.19   29.10
  -3  -1  -5 1154.08   31.50
  -3  -1  -5 1184.98   29.80
   3   1   5 1192.28   27.40
   3   1   5 1225.18   32.50
   3   1   5 1169.48   30.10
   3   1   5 1164.98   29.70
  -4  -1  -5  538.65   19.20
  -4  -1  -5  523.85   20.80
  -4  -1  -5  533.45   17.80
  -4  -1  -5  551.14   18.80
  -4  -1  -5  526.35   18.50
   4   1   5  547.55   19.30
   4   1   5  536.55   19.20
   4   1   5  542.85   20.90
   4   1   5  546.65   17.50
  -5  -1  -5    4.80    3.60
  -5  -1  -5   -0.20    3.70
  -5  -1  -5    7.90    4.30
  -5  -1  -5    3.20    4.10
  -5  -1  -5    1.10    3.40
   5   1   5    7.10    4.80
   5   1   5    3.70    4.30
   5   1   5    9.70    3.90
   5   1   5    4.60    4.90
  -6  -1  -5   38.30    7.00
  -6  -1  -5   19.20    4.90
  -6  -1  -5   32.40    6.50
   6   1   5   32.60    5.50
   6   1   5   33.40    7.20
   6   1   5   33.70    6.90
  -7  -1  -5  406.76   18.60
  -7  -1  -5  421.46   19.80
   7   1   5  437.16   23.30
   7   1   5  443.86   20.80
  -8  -1  -5  161.88   14.00
  -8  -1  -5  149.09   12.30
  -8  -1  -5  187.98   14.70
   8   1   5  190.78   17.60
   8   1   5  170.48   14.30
  -9  -1  -5  148.89   13.40
  -9  -1  -5  150.38   14.30
  -9  -1  -5  150.68   12.40
   9   1   5  181.28   16.80
   9   1   5  146.09   14.50
 -10  -1  -5   33.00    7.50
 -10  -1  -5   49.10    9.10
 -10  -1  -5   39.60   10.00
  10   1   5   71.89   13.40
  10   1   5   43.40   10.50
   9  -2  -5    4.20    7.30
  -9   2   5    8.20    6.70
  -9   2   5   19.50    7.30
   8  -2  -5   -9.40    5.20
  -8   2   5    7.10    5.20
  -8   2   5   -2.10    3.50
   7  -2  -5  337.77   18.30
  -7   2   5  309.67   16.40
  -7   2   5  310.77   18.40
   6  -2  -5    7.20    5.30
   6  -2  -5    8.40    1.70
  -6   2   5    5.70    3.60
   5  -2  -5  791.92   25.90
   5  -2  -5  742.83   25.60
   5  -2  -5  749.13   16.10
   5  -2  -5  811.22   29.30
  -5   2   5  752.12   22.60
  -5   2   5  760.62   25.80
   4  -2  -5  143.29    9.90
   4  -2  -5  136.79    5.20
   4  -2  -5  137.89   11.20
   4  -2  -5  161.18   10.50
  -4   2   5  133.79    7.90
  -4   2   5  138.39   10.70
  -4   2   5  117.29    9.60
   3  -2  -5   72.09    6.80
   3  -2  -5   66.49    6.40
  -3   2   5   65.99    7.00
  -3   2   5   66.69    5.00
  -3   2   5   66.69    7.00
   2  -2  -5  143.49    7.90
   2  -2  -5  144.99    8.90
   2  -2  -5  131.99    9.30
  -2   2   5  143.99    5.20
  -2   2   5  148.89    9.30
  -2   2   5  142.49    9.10
   1  -2  -5 1039.70   25.20
   1  -2  -5 1056.79   22.70
   1  -2  -5 1022.60   26.50
  -1   2   5 1005.20   25.60
  -1   2   5 1023.50   27.90
  -1   2   5  960.00   26.20
   0  -2  -5  112.49    7.50
   0  -2  -5  126.59    7.60
   0  -2  -5  112.69    3.00
   0   2   5  117.09    8.20
   0   2   5  142.39   10.20
   0   2   5  115.69    8.40
  -1  -2  -5  504.95   18.60
  -1  -2  -5  503.25   11.10
  -1  -2  -5  475.45   15.00
  -1  -2  -5  495.65   15.90
   1   2   5  486.65   16.50
   1   2   5  464.25   15.30
   1   2   5  491.15   18.30
  -2  -2  -5  304.27   12.30
  -2  -2  -5  318.37   14.50
  -2  -2  -5  317.67    9.60
  -2  -2  -5  308.27   12.00
   2   2   5  343.47    9.70
   2   2   5  336.17   13.00
   2   2   5  343.07   13.30
   2   2   5  328.67   17.60
  -3  -2  -5   25.00    5.40
  -3  -2  -5   21.50    4.40
  -3  -2  -5   25.00    5.10
  -3  -2  -5   20.40    3.50
  -3  -2  -5   18.70    4.90
   3   2   5   29.40    6.60
   3   2   5   24.20    5.40
   3   2   5   30.50    5.10
   3   2   5   26.10    5.00
  -4  -2  -5    2.80    2.90
  -4  -2  -5    6.70    4.20
  -4  -2  -5    0.80    3.00
  -4  -2  -5   -4.30    2.90
  -4  -2  -5   -2.80    3.00
   4   2   5    5.40    4.40
   4   2   5    3.80    2.90
   4   2   5    4.10    3.50
  -5  -2  -5 1126.69   30.90
  -5  -2  -5 1151.08   30.70
  -5  -2  -5 1178.28   32.20
  -5  -2  -5 1119.19   30.70
   5   2   5 1166.88   35.00
   5   2   5 1112.29   32.20
   5   2   5 1136.49   32.00
   5   2   5 1118.99   29.80
  -6  -2  -5  226.38   13.20
  -6  -2  -5  226.08   13.60
  -6  -2  -5  226.88   13.30
   6   2   5  204.38   12.80
   6   2   5  205.98   15.00
   6   2   5  228.28   14.30
  -7  -2  -5  369.06   20.90
  -7  -2  -5  342.97   17.80
   7   2   5  348.17   18.30
   7   2   5  316.37   19.70
  -8  -2  -5   51.29    8.50
  -8  -2  -5   37.50    8.20
  -8  -2  -5   40.00    7.50
   8   2   5   47.30    9.00
   8   2   5   50.89    9.80
  -9  -2  -5   39.90    7.70
  -9  -2  -5   37.00    7.60
  -9  -2  -5   27.70    7.60
   9   2   5   31.10    8.40
   9   2   5   47.60   10.40
 -10  -2  -5    1.90    4.30
 -10  -2  -5    6.50    6.40
  10   2   5   11.60    8.20
  -9   3   5  120.79   13.70
  -9   3   5   78.19   11.60
   8  -3  -5  233.98   16.30
  -8   3   5  235.98   17.20
   7  -3  -5   55.59    8.90
  -7   3   5   81.09   11.40
   6  -3  -5   65.59    8.40
  -6   3   5   49.40    8.20
   5  -3  -5   11.40    4.50
   5  -3  -5    8.10    4.80
   5  -3  -5   13.20    4.40
  -5   3   5   11.30    5.20
  -5   3   5    9.40    4.50
   4  -3  -5  249.18   12.10
   4  -3  -5  289.07   13.30
   4  -3  -5  262.77   13.10
  -4   3   5  274.57   13.50
  -4   3   5  250.27   12.90
  -4   3   5  263.97   13.20
   3  -3  -5  532.25   17.40
   3  -3  -5  562.24   18.40
   3  -3  -5  544.35   17.50
  -3   3   5  538.75   18.30
  -3   3   5  570.94   18.90
  -3   3   5  554.94   17.70
   2  -3  -5  363.96   14.40
   2  -3  -5  376.16   13.20
   2  -3  -5  383.16   12.60
  -2   3   5  380.16   14.40
  -2   3   5  380.86   14.30
   1  -3  -5  225.78    8.70
   1  -3  -5  221.28    9.20
   1  -3  -5  233.68   10.40
   1  -3  -5  234.58    7.80
  -1   3   5  217.58   11.30
  -1   3   5  221.58   10.10
   0  -3  -5   84.69    6.30
   0  -3  -5   79.89    6.10
   0  -3  -5   85.09    3.30
   0  -3  -5   84.19    2.80
   0   3   5   81.09    6.80
   0   3   5   74.59    7.10
   0   3   5   83.09    9.30
  -1  -3  -5  107.99    6.60
  -1  -3  -5  119.69    5.90
  -1  -3  -5  121.89   10.10
  -1  -3  -5  112.89    7.60
   1   3   5  122.39    8.00
   1   3   5  132.99   10.50
   1   3   5  117.19    7.50
  -2  -3  -5 1277.67   29.30
  -2  -3  -5 1312.37   30.80
  -2  -3  -5 1392.76   30.40
  -2  -3  -5 1359.16   25.90
  -2  -3  -5 1367.96   33.20
  -2  -3  -5 1324.07   35.60
   2   3   5 1329.77   25.70
   2   3   5 1325.27   31.50
   2   3   5 1347.07   30.90
   2   3   5 1355.46   35.50
  -3  -3  -5  650.63   20.70
  -3  -3  -5  652.53   16.60
  -3  -3  -5  614.04   18.20
  -3  -3  -5  629.64   21.90
  -3  -3  -5  651.63   18.50
   3   3   5  596.04   22.20
   3   3   5  621.24   16.00
   3   3   5  661.73   23.00
   3   3   5  612.04   18.90
  -4  -3  -5  515.25   18.70
  -4  -3  -5  486.25   19.80
  -4  -3  -5  460.55   16.20
  -4  -3  -5  490.15   16.00
  -4  -3  -5  512.95   17.10
   4   3   5  462.95   15.20
   4   3   5  495.35   20.30
   4   3   5  494.75   17.70
  -5  -3  -5   23.60    5.20
  -5  -3  -5   26.30    5.30
  -5  -3  -5   25.30    4.60
  -5  -3  -5   24.50    5.10
   5   3   5   32.80    6.00
   5   3   5   20.60    5.80
   5   3   5   27.70    5.40
   5   3   5   22.10    4.70
  -6  -3  -5    4.80    4.20
  -6  -3  -5   -0.50    3.90
  -6  -3  -5   -1.70    4.30
  -6  -3  -5   -1.80    4.40
   6   3   5    5.70    4.20
   6   3   5   -3.20    2.60
   6   3   5   -2.80    4.00
  -7  -3  -5   59.69    8.90
  -7  -3  -5   53.69    8.00
  -7  -3  -5   62.39    8.80
   7   3   5   55.69    9.40
   7   3   5   69.89    9.60
  -8  -3  -5  319.77   17.70
  -8  -3  -5  288.67   19.80
  -8  -3  -5  298.47   16.70
  -8  -3  -5  305.07   18.50
   8   3   5  290.17   20.00
   8   3   5  283.47   18.40
  -9  -3  -5   86.29    9.90
  -9  -3  -5   97.29   10.30
  -9  -3  -5   59.39   11.50
   9   3   5   53.39   10.90
   9   3   5   85.29   12.50
 -10  -3  -5  108.89   12.50
  10   3   5  108.99   17.50
   9  -4  -5   -4.30    5.70
  -9   4   5   -9.90    4.80
   8  -4  -5  107.19   11.30
  -8   4   5  109.89   12.90
  -8   4   5  124.39   14.70
   7  -4  -5   31.50    8.00
  -7   4   5   43.00    8.10
  -7   4   5   54.69    8.90
   6  -4  -5  867.71   28.50
  -6   4   5  837.02   29.70
   5  -4  -5    9.70    4.30
   5  -4  -5    2.30    3.60
   5  -4  -5   17.70    4.50
  -5   4   5   11.40    4.60
  -5   4   5    0.50    4.20
   4  -4  -5   34.40    5.00
   4  -4  -5   37.30    6.00
  -4   4   5   34.00    5.60
  -4   4   5   20.20    4.70
  -4   4   5   27.60    6.00
   3  -4  -5  132.99    8.60
   3  -4  -5  144.79    4.30
   3  -4  -5  147.69   10.30
   3  -4  -5  152.28    8.60
  -3   4   5  134.39    8.70
  -3   4   5  145.09    8.90
  -3   4   5  132.19    9.10
   2  -4  -5 1102.59   25.60
   2  -4  -5 1056.29   26.90
   2  -4  -5 1093.19   22.70
   2  -4  -5 1074.99   25.20
  -2   4   5 1058.49   25.20
  -2   4   5 1111.39   27.80
  -2   4   5 1154.28   27.90
  -2   4   5 1078.99   23.30
   1  -4  -5  214.38    8.20
   1  -4  -5  219.28    8.90
   1  -4  -5  200.98    8.30
   1  -4  -5  216.18    7.50
  -1   4   5  213.48    7.40
  -1   4   5  212.38    6.20
  -1   4   5  190.98   10.20
  -1   4   5  212.88    9.80
  -1   4   5  214.38   12.70
   0  -4  -5 2131.49   41.20
   0  -4  -5 2156.58   41.20
   0  -4  -5 2181.38   41.00
   0  -4  -5 2099.69   44.10
   0   4   5 2228.18   52.19
   0   4   5 2172.78   44.50
   0   4   5 2195.98   40.00
   0   4   5 2157.78   44.70
  -1  -4  -5    9.70    2.60
  -1  -4  -5    6.20    2.60
  -1  -4  -5   13.50    2.80
  -1  -4  -5    6.20    3.90
  -1  -4  -5   14.30    4.30
   1   4   5   12.90    4.10
   1   4   5    8.20    3.20
   1   4   5    7.10    4.70
  -2  -4  -5   -1.40    3.00
  -2  -4  -5    3.60    2.50
  -2  -4  -5    1.00    2.70
  -2  -4  -5    3.60    4.40
  -2  -4  -5    2.40    2.70
   2   4   5    5.50    1.50
   2   4   5    0.90    2.70
   2   4   5    0.30    4.80
   2   4   5    6.30    3.20
  -3  -4  -5   58.39    5.60
  -3  -4  -5   70.29    7.30
  -3  -4  -5   52.89    5.20
  -3  -4  -5   72.59    7.50
   3   4   5   80.09    9.30
   3   4   5   62.69    4.60
   3   4   5   56.39    6.00
   3   4   5   73.99    6.60
  -4  -4  -5  620.04   21.90
  -4  -4  -5  572.24   18.00
  -4  -4  -5  593.24   18.20
  -4  -4  -5  622.74   21.30
  -4  -4  -5  591.24   22.50
   4   4   5  576.34   22.80
   4   4   5  584.24   17.30
   4   4   5  586.14   19.80
   4   4   5  583.04   19.50
  -5  -4  -5   73.09    8.50
  -5  -4  -5   63.69    6.30
  -5  -4  -5   75.29    7.40
  -5  -4  -5   79.99    8.70
   5   4   5   56.19    6.80
   5   4   5   72.39    7.50
   5   4   5   67.39    9.10
   5   4   5   69.19    8.40
  -6  -4  -5  649.04   21.90
  -6  -4  -5  672.43   26.80
  -6  -4  -5  619.44   21.30
  -6  -4  -5  678.93   24.70
   6   4   5  605.64   21.80
   6   4   5  650.53   24.20
   6   4   5  657.43   27.30
  -7  -4  -5   -0.10    5.50
  -7  -4  -5    7.10    4.70
  -7  -4  -5    7.00    5.20
   7   4   5    1.90    5.40
   7   4   5    1.40    4.90
  -8  -4  -5    8.60    7.50
  -8  -4  -5    6.40    5.50
  -8  -4  -5    7.70    5.90
   8   4   5   -2.40    5.10
   8   4   5    2.50    6.30
  -9  -4  -5    4.40    4.20
  -9  -4  -5    2.40    4.90
   9   4   5    1.40    5.70
   9  -5  -5  163.78   15.50
  -9   5   5  185.98   16.50
  -9   5   5  202.78   18.40
   8  -5  -5   16.80    6.80
  -8   5   5   21.00    6.50
  -8   5   5   18.40    7.70
   7  -5  -5   -1.20    5.10
  -7   5   5   -3.70    5.60
  -7   5   5   -9.10    3.60
   6  -5  -5  104.59    9.40
  -6   5   5  110.69   11.10
  -6   5   5   96.69   10.50
  -5   5   5  340.77   17.10
  -5   5   5  289.77   15.50
   4  -5  -5  335.47   15.70
   4  -5  -5  333.87   13.20
   4  -5  -5  332.37   13.60
  -4   5   5  338.87   15.20
  -4   5   5  314.77   14.50
  -4   5   5  308.77   14.60
   3  -5  -5 1301.67   31.00
   3  -5  -5 1296.77   24.10
   3  -5  -5 1288.67   29.30
   3  -5  -5 1288.17   31.70
  -3   5   5 1283.37   32.20
  -3   5   5 1263.27   31.50
  -3   5   5 1246.08   31.70
   2  -5  -5   19.20    3.00
   2  -5  -5   13.30    2.50
   2  -5  -5   13.60    3.30
   2  -5  -5   14.20    3.20
  -2   5   5   14.30    3.40
  -2   5   5   15.40    2.80
  -2   5   5   16.60    3.30
  -2   5   5   14.40    3.50
   1  -5  -5    1.90    1.40
   1  -5  -5   -0.80    1.50
   1  -5  -5    0.00    1.60
   1  -5  -5    1.20    2.00
  -1   5   5   -1.70    3.30
  -1   5   5    1.90    2.80
  -1   5   5   -0.50    1.60
  -1   5   5   -0.70    1.70
  -1   5   5    3.40    3.10
   0  -5  -5  165.38    8.50
   0  -5  -5  187.28    8.50
   0   5   5  155.18    7.70
   0   5   5  190.68    8.60
   0   5   5  173.98   12.90
   0   5   5  175.38    5.10
   0   5   5  169.98    7.30
  -1  -5  -5 1147.29   27.80
  -1  -5  -5 1185.58   30.10
  -1  -5  -5 1190.58   33.90
   1   5   5 1234.28   29.80
   1   5   5 1214.88   26.90
   1   5   5 1177.88   28.00
   1   5   5 1235.58   35.70
   1   5   5 1205.98   27.00
  -2  -5  -5  237.98   14.50
  -2  -5  -5  244.78   11.30
  -2  -5  -5  250.97    6.80
  -2  -5  -5  246.38    6.70
  -2  -5  -5  271.77   12.60
   2   5   5  256.87   10.30
   2   5   5  250.47    7.10
   2   5   5  250.57   10.60
   2   5   5  263.87   15.00
   2   5   5  240.18   12.40
  -3  -5  -5 1134.49   25.10
  -3  -5  -5 1172.98   30.70
  -3  -5  -5 1112.99   24.10
  -3  -5  -5 1167.08   31.40
  -3  -5  -5 1140.29   34.30
   3   5   5 1122.49   30.90
   3   5   5 1165.18   28.40
   3   5   5 1127.59   24.80
   3   5   5 1188.88   34.40
   3   5   5 1096.39   27.60
  -4  -5  -5    4.40    4.10
  -4  -5  -5    3.20    3.90
  -4  -5  -5    3.40    2.30
  -4  -5  -5   12.10    4.50
  -4  -5  -5    7.70    2.90
   4   5   5    7.00    4.30
   4   5   5    7.60    3.10
   4   5   5    0.00    3.70
   4   5   5    2.40    2.90
  -5  -5  -5    5.70    5.10
  -5  -5  -5   11.10    5.30
  -5  -5  -5    9.40    3.70
  -5  -5  -5   12.30    4.30
   5   5   5    8.50    4.80
   5   5   5   11.30    4.80
   5   5   5    0.90    3.20
   5   5   5    8.20    5.30
  -6  -5  -5   97.39   10.60
  -6  -5  -5  100.29   12.40
  -6  -5  -5  106.39    8.20
  -6  -5  -5  109.99    8.50
   6   5   5  109.59    8.90
   6   5   5   91.29   10.50
  -7  -5  -5  334.97   15.30
  -7  -5  -5  350.96   18.90
  -7  -5  -5  343.37   15.90
  -7  -5  -5  367.26   20.80
   7   5   5  345.97   21.30
   7   5   5  348.87   18.80
  -8  -5  -5   35.60    9.10
  -8  -5  -5   22.00    8.00
   8   5   5   38.50    8.70
   8   5   5   38.70    9.10
  -9  -5  -5   65.29    8.80
  -9  -5  -5   70.39   12.40
  -9  -5  -5   84.79   12.60
   9  -6  -5   -4.60    5.90
  -9   6   5   -8.80    5.00
   8  -6  -5    7.90    6.10
  -8   6   5   31.50    6.60
  -8   6   5   12.60    7.00
   7  -6  -5  340.37   20.10
  -7   6   5  373.16   20.60
  -7   6   5  386.76   20.30
   6  -6  -5   93.29    9.10
  -6   6   5   99.39   10.60
   5  -6  -5  359.96   14.60
   5  -6  -5  370.86   15.30
  -5   6   5  369.36   17.60
  -5   6   5  365.06   17.70
   4  -6  -5   20.00    4.80
   4  -6  -5   13.60    4.80
   4  -6  -5   20.20    3.90
  -4   6   5   16.10    4.80
  -4   6   5   18.10    5.10
  -4   6   5    7.60    4.50
   3  -6  -5  103.19    6.50
   3  -6  -5  108.39    4.60
   3  -6  -5  111.59    5.80
   3  -6  -5  100.29    8.00
  -3   6   5  129.39    9.40
  -3   6   5  110.89    8.60
  -3   6   5  101.29    7.60
  -3   6   5  110.89    8.00
   2  -6  -5  110.89    5.80
   2  -6  -5  116.19    7.70
  -2   6   5  113.79    7.30
  -2   6   5  109.49    7.50
  -2   6   5  112.79    7.30
  -2   6   5  110.59    7.70
   1  -6  -5 1550.24   34.20
   1  -6  -5 1603.74   33.70
  -1   6   5 1570.24   33.80
  -1   6   5 1680.73   43.70
  -1   6   5 1612.14   34.40
  -1   6   5 1479.35   34.70
  -1   6   5 1585.84   33.90
  -1   6   5 1589.24   32.80
   0  -6  -5  226.58   10.80
   0  -6  -5  213.48   12.40
   0   6   5  216.28    8.70
   0   6   5  241.48   15.40
   0   6   5  214.78    7.10
   0   6   5  229.08    9.40
   0   6   5  217.38    8.90
   0   6   5  217.88   10.30
  -1  -6  -5  539.35   17.80
  -1  -6  -5  533.95   18.40
   1   6   5  531.05   14.70
   1   6   5  569.04   18.40
   1   6   5  538.95   12.40
   1   6   5  545.55   16.00
   1   6   5  532.65   22.20
   1   6   5  577.34   17.10
  -2  -6  -5    4.10    3.70
  -2  -6  -5   18.50    5.20
  -2  -6  -5   16.70    4.90
   2   6   5   12.20    5.70
   2   6   5   10.70    3.30
   2   6   5   11.70    3.40
   2   6   5   13.70    2.30
   2   6   5   14.40    4.20
  -3  -6  -5  333.27   17.90
  -3  -6  -5  371.46   16.10
  -3  -6  -5  358.96   16.00
   3   6   5  355.26   18.90
   3   6   5  323.97   12.60
   3   6   5  351.56   13.20
   3   6   5  367.46   18.70
  -4  -6  -5  153.78    6.60
  -4  -6  -5  151.58   11.50
  -4  -6  -5  165.58    6.20
  -4  -6  -5  157.68   11.40
   4   6   5  168.68    9.20
   4   6   5  160.88   13.10
   4   6   5  167.18    9.80
   4   6   5  182.78   10.20
  -5  -6  -5 1039.80   33.60
  -5  -6  -5 1059.39   24.70
  -5  -6  -5 1017.80   25.00
   5   6   5 1035.40   29.80
   5   6   5 1023.00   28.10
   5   6   5 1077.49   30.20
   5   6   5 1049.30   34.30
  -6  -6  -5  113.19    7.70
  -6  -6  -5  121.79   11.50
  -6  -6  -5  121.99   12.50
  -6  -6  -5  107.29    8.10
   6   6   5  109.39   10.10
   6   6   5  104.79    9.10
   6   6   5   96.49   11.40
  -7  -6  -5  193.68   14.40
  -7  -6  -5  165.78   14.90
  -7  -6  -5  187.48   10.90
   7   6   5  167.08   13.60
   7   6   5  183.18   15.10
  -8  -6  -5   -7.20    4.90
  -8  -6  -5   -5.10    5.40
  -8  -6  -5   -1.80    4.10
   8   6   5    0.10    5.50
   8   6   5  -12.90    5.30
  -9  -6  -5   29.90    7.30
  -9  -6  -5   44.60    7.60
  -9  -6  -5   64.19   10.70
   9   6   5   32.50    8.40
  -8   7   5   27.80    7.70
  -7   7   5   -1.10    5.00
  -7   7   5   10.50    5.70
   6  -7  -5  186.18   11.60
  -6   7   5  200.88   14.00
  -6   7   5  196.38   15.00
   5  -7  -5   18.80    4.00
   5  -7  -5   22.10    5.00
  -5   7   5   15.30    6.10
  -5   7   5   16.10    5.90
   4  -7  -5  491.65   15.60
   4  -7  -5  494.35   19.60
   4  -7  -5  495.35   14.90
  -4   7   5  470.35   18.30
  -4   7   5  504.45   19.90
  -4   7   5  472.15   19.10
  -4   7   5  499.55   18.90
   3  -7  -5  375.36   15.90
  -3   7   5  378.26   14.90
  -3   7   5  390.16   15.80
  -3   7   5  397.66   15.10
  -3   7   5  386.06   15.90
   2  -7  -5    1.80    2.50
   2  -7  -5    5.20    2.90
  -2   7   5    2.70    2.20
  -2   7   5    9.50    3.30
  -2   7   5   -1.80    2.70
  -2   7   5    2.30    3.20
  -2   7   5    6.90    3.30
   1  -7  -5    2.40    2.70
   1  -7  -5    0.80    2.50
  -1   7   5    0.40    2.30
  -1   7   5    0.20    2.40
  -1   7   5    1.90    4.00
  -1   7   5    1.00    2.40
  -1   7   5    3.00    2.70
   0  -7  -5  436.86   15.30
   0  -7  -5  418.96   16.40
   0   7   5  424.66   15.50
   0   7   5  394.36   12.00
   0   7   5  413.56   14.50
   0   7   5  439.26   21.80
   0   7   5  390.46   12.60
   0   7   5  406.46   12.10
  -1  -7  -5  150.58   10.60
  -1  -7  -5  157.08    9.70
   1   7   5  138.39    9.10
   1   7   5  126.19    8.50
   1   7   5  136.59    7.10
   1   7   5  144.69   12.30
   1   7   5  135.79    6.20
   1   7   5  133.09    6.30
  -2  -7  -5  581.94   23.90
  -2  -7  -5  660.53   22.30
  -2  -7  -5  635.74   22.20
   2   7   5  638.74   20.90
   2   7   5  636.54   21.90
   2   7   5  651.03   17.60
   2   7   5  636.84   16.40
   2   7   5  676.23   25.60
   2   7   5  631.94   16.90
  -3  -7  -5  367.46   16.80
  -3  -7  -5  382.66   17.40
  -3  -7  -5  347.67   19.20
   3   7   5  400.86   19.80
   3   7   5  361.26   12.90
   3   7   5  364.86   13.30
   3   7   5  359.36   12.40
  -4  -7  -5   -1.10    5.20
  -4  -7  -5   -2.30    3.80
   4   7   5    2.20    2.70
   4   7   5   -2.90    4.30
   4   7   5    1.70    3.30
   4   7   5    2.50    3.40
  -5  -7  -5    5.00    5.20
  -5  -7  -5    2.30    4.90
   5   7   5    1.40    4.50
   5   7   5    0.50    4.50
   5   7   5    0.50    4.00
   5   7   5   -3.80    3.20
  -6  -7  -5  211.58   14.80
  -6  -7  -5  209.68   16.90
  -6  -7  -5  227.68    8.90
   6   7   5  211.18   13.30
   6   7   5  206.88   15.70
   6   7   5  214.98   13.90
  -7  -7  -5  118.59   13.20
  -7  -7  -5  127.59   13.70
  -7  -7  -5  123.99    8.80
  -7  -7  -5  123.79    8.00
   7   7   5  135.59   12.30
   7   7   5   99.39   12.50
  -8  -7  -5  222.78   18.60
  -8  -7  -5  210.08   11.80
   8   7   5  217.08   16.50
   8   7   5  198.78   17.60
  -9  -7  -5   38.10   11.60
  -9  -7  -5   31.00    7.20
  -9  -7  -5   28.50    6.80
   9   7   5   42.40    9.40
   9   7   5   20.20    8.70
  -8   8   5  141.89   15.10
  -8   8   5  143.99   16.90
   7  -8  -5   46.50    6.50
  -7   8   5   39.10    7.90
  -7   8   5   41.30    8.20
   6  -8  -5  178.38   10.00
   6  -8  -5  159.08    9.90
  -6   8   5  162.68   12.60
  -6   8   5  168.58   15.20
   5  -8  -5   98.39    6.30
   5  -8  -5   85.59    5.40
  -5   8   5   69.19    9.40
  -5   8   5  103.49   10.00
  -5   8   5   62.49   10.40
   4  -8  -5   60.49    9.10
  -4   8   5   80.09    8.90
  -4   8   5   65.99    8.30
  -4   8   5   67.39    7.80
  -3   8   5   74.39    8.00
  -3   8   5   76.49    8.10
  -3   8   5   86.49    8.50
  -3   8   5   78.09    7.30
   2  -8  -5  518.55   15.90
   2  -8  -5  520.45   18.30
  -2   8   5  497.05   15.70
  -2   8   5  524.65   18.40
  -2   8   5  505.75   16.10
  -2   8   5  496.85   18.00
  -2   8   5  496.55   15.80
   1  -8  -5  580.64   18.60
  -1   8   5  581.14   25.10
  -1   8   5  608.24   18.90
  -1   8   5  554.84   18.90
  -1   8   5  583.24   17.70
  -1   8   5  578.04   15.80
   0  -8  -5  484.55   17.40
   0  -8  -5  470.95   19.20
   0   8   5  490.25   23.20
   0   8   5  481.05   14.60
   0   8   5  469.35   13.00
   0   8   5  467.45   17.80
   0   8   5  470.85   17.20
   0   8   5  450.35   15.00
  -1  -8  -5   90.79    9.60
  -1  -8  -5   76.59    7.90
   1   8   5   72.89    5.20
   1   8   5   74.79    9.60
   1   8   5   75.89    7.20
   1   8   5   73.69    5.50
   1   8   5   83.99    5.60
   1   8   5   58.89    7.00
  -2  -8  -5  175.48   11.60
  -2  -8  -5  156.48   12.30
   2   8   5  172.88    8.50
   2   8   5  163.08   10.70
   2   8   5  169.68    7.50
   2   8   5  169.78   13.20
   2   8   5  160.38    7.60
  -3  -8  -5   76.79    9.50
  -3  -8  -5   75.89    9.20
   3   8   5   90.79    6.50
   3   8   5   74.19    9.20
   3   8   5   86.29   10.90
   3   8   5   79.49    6.60
   3   8   5   81.39    6.60
  -4  -8  -5  278.97   16.40
  -4  -8  -5  310.67   16.80
   4   8   5  303.07   13.30
   4   8   5  287.77   13.00
   4   8   5  308.07   17.50
   4   8   5  306.67   13.30
  -5  -8  -5  345.07   18.90
  -5  -8  -5  356.56   20.30
   5   8   5  321.37   30.70
   5   8   5  364.76   15.70
  -6  -8  -5   30.90    6.80
  -6  -8  -5   28.60    8.10
   6   8   5   21.10    5.90
   6   8   5   27.70    7.40
  -7  -8  -5    3.50    7.80
  -7  -8  -5   25.00    7.00
   7   8   5   25.80    6.80
   7   8   5   13.10    6.40
  -8  -8  -5   98.89   12.40
  -8  -8  -5  102.99   14.10
   8   8   5   89.89   11.60
   8   8   5  106.69   12.40
  -7   9   5    3.30    5.10
  -7   9   5   -5.70    6.10
  -6   9   5   42.50    8.10
  -6   9   5   28.30    7.30
  -5   9   5  497.15   23.40
  -5   9   5  505.35   21.10
  -4   9   5   70.09    8.70
  -4   9   5   72.79   10.50
  -4   9   5   71.49    8.20
   3  -9  -5  625.64   23.30
  -3   9   5  624.64   22.60
  -3   9   5  634.34   22.30
  -3   9   5  604.24   17.40
  -3   9   5  618.14   19.60
   2  -9  -5    9.70    3.60
   2  -9  -5   10.20    4.30
  -2   9   5    6.90    2.90
  -2   9   5    7.00    3.80
  -2   9   5    4.80    4.80
  -2   9   5    6.20    3.50
  -2   9   5    8.70    3.90
  -2   9   5   13.70    3.40
   1  -9  -5   18.00    4.70
  -1   9   5   11.30    3.20
  -1   9   5   13.90    5.10
  -1   9   5   13.70    4.70
  -1   9   5   21.80    3.60
  -1   9   5   18.10    6.30
   0  -9  -5   42.70    6.00
   0  -9  -5   29.80    6.80
   0   9   5   32.20    5.40
   0   9   5   37.30    3.50
   0   9   5   26.40    8.30
   0   9   5   44.00    5.60
   0   9   5   29.70    5.60
  -1  -9  -5  898.11   27.50
  -1  -9  -5  867.91   29.70
   1   9   5  831.42   26.60
   1   9   5  885.91   23.00
   1   9   5  802.32   31.00
   1   9   5  858.01   20.30
  -2  -9  -5   58.39    7.90
  -2  -9  -5   58.79    8.90
   2   9   5   57.29    4.70
   2   9   5   60.59    4.80
   2   9   5   75.89    9.90
   2   9   5   46.00    5.90
  -3  -9  -5  461.55   20.80
  -3  -9  -5  429.86   20.90
   3   9   5  427.76   14.20
   3   9   5  425.56   21.50
   3   9   5  450.05   14.60
  -4  -9  -5   17.40    6.40
   4   9   5   14.90    4.10
   4   9   5   13.80    5.00
   4   9   5   10.00    3.70
  -5  -9  -5  112.99   11.90
  -5  -9  -5  119.99   12.90
   5   9   5  115.99    9.30
   5   9   5  120.39   12.90
   5   9   5  119.19    9.70
  -6  -9  -5    8.40    6.30
  -6  -9  -5    0.10    5.00
   6   9   5   13.00    4.60
   6   9   5   -3.40    5.90
  -7  -9  -5  338.87   22.70
  -7  -9  -5  331.97   21.10
   7   9   5  334.97   20.90
   7   9   5  317.57   18.00
  -8  -9  -5    5.10    7.20
  -6  10   5    3.30    4.70
  -6  10   5    6.40    4.90
  -5  10   5    0.50    4.60
  -5  10   5   11.10    5.70
  -4  10   5   25.90    6.60
  -4  10   5   46.10    6.90
  -3  10   5  244.58   11.80
  -3  10   5  222.58   11.30
  -3  10   5  232.78   14.00
  -3  10   5  215.28   10.40
  -2  10   5   74.59    6.10
  -2  10   5   51.39    7.30
  -2  10   5   59.09    9.80
  -2  10   5   61.89    7.70
  -2  10   5   58.69    5.80
   1 -10  -5  172.68   11.30
  -1  10   5  199.38   19.00
  -1  10   5  180.88   10.50
  -1  10   5  174.08    7.70
  -1  10   5  170.38    7.80
  -1  10   5  164.08   10.70
  -1  10   5  176.48   13.90
   0 -10  -5   -2.70    4.00
   0 -10  -5    0.20    4.10
   0  10   5   -2.40    5.60
   0  10   5   -2.20    2.80
   0  10   5   -1.20    1.50
  -1 -10  -5    6.80    5.50
  -1 -10  -5   13.70    5.10
   1  10   5    5.80    5.80
   1  10   5    6.70    2.30
   1  10   5    9.30    3.80
   1  10   5   14.40    2.50
  -2 -10  -5   67.59    9.40
  -2 -10  -5   55.79    9.30
   2  10   5   63.69    9.20
   2  10   5   64.39    4.80
   2  10   5   69.59    4.80
   2  10   5   67.99    6.70
  -3 -10  -5  210.18   26.10
  -3 -10  -5  250.97   15.40
   3  10   5  235.88   16.50
   3  10   5  239.78   10.10
   3  10   5  237.48   12.30
   3  10   5  231.08    9.90
  -4 -10  -5   60.89    9.30
  -4 -10  -5   58.59    9.00
   4  10   5   45.70    8.40
   4  10   5   59.69    6.50
   4  10   5   45.50    6.30
  -5 -10  -5  158.78   14.10
  -5 -10  -5  130.39   15.10
   5  10   5  167.18   13.80
   5  10   5  176.28   11.10
  -6 -10  -5    3.40    5.10
  -6 -10  -5   -1.30    6.10
   6  10   5   -3.20    4.10
   6  10   5    7.10    5.60
  -7 -10  -5   11.50    6.40
   7  10   5   25.60    6.70
   7  10   5   15.90    6.20
  -5  11   5   -7.60    4.60
  -4  11   5  142.29   10.10
  -4  11   5  148.29   12.70
  -3  11   5    7.90    4.00
  -3  11   5    7.50    4.00
  -3  11   5    4.70    5.50
  -3  11   5    7.80    2.70
  -2  11   5   16.70    4.10
  -2  11   5   20.80    5.40
  -2  11   5   18.60    3.50
  -2  11   5    3.80    3.60
  -2  11   5    4.70    5.70
   1 -11  -5   10.00    5.10
  -1  11   5   20.30    5.40
  -1  11   5   19.30    3.20
  -1  11   5   21.60    3.30
  -1  11   5   26.30    7.30
   0 -11  -5  490.75   24.00
   0  11   5  469.75   12.30
   0  11   5  494.15   25.50
   0  11   5  495.65   18.50
  -1 -11  -5    2.60    4.30
  -1 -11  -5   -5.80    5.70
   1  11   5   -1.00    2.70
   1  11   5   -2.90    1.60
   1  11   5    2.40    1.70
  -2 -11  -5  151.78   13.00
  -2 -11  -5  134.09   15.10
   2  11   5  162.08    6.90
   2  11   5  153.78    6.90
   2  11   5  160.18   10.70
  -3 -11  -5   22.90    7.50
  -3 -11  -5   20.40    5.80
   3  11   5   11.60    3.40
   3  11   5   15.10    3.50
   3  11   5   11.80    4.70
   3  11   5    4.50    5.10
  -4 -11  -5   41.60    8.40
  -4 -11  -5   41.70    9.20
   4  11   5   12.80    4.70
   4  11   5   30.10    5.00
   4  11   5   26.20    4.70
   4  11   5   20.70    5.30
   4  11   5   12.40    6.10
  -5 -11  -5   16.50    8.00
  -5 -11  -5    0.10    6.50
   5  11   5   13.70    5.80
   5  11   5   15.00    4.50
  -6 -11  -5  200.28   17.80
   6  11   5  180.78   12.40
   6  11   5  177.58   15.70
  -4  12   5   77.19    8.50
  -4  12   5   65.39    9.80
  -3  12   5  165.78   10.00
  -3  12   5  159.88   13.30
  -3  12   5  177.78   16.80
  -2  12   5  194.28    9.30
  -2  12   5  191.98   13.50
  -2  12   5  177.98   16.60
  -1  12   5  140.79    6.90
  -1  12   5  149.59    7.10
  -1  12   5  141.39   15.90
  -1  12   5  148.79   11.30
   0 -12  -5   27.80    6.40
   0  12   5   29.50    7.10
   0  12   5   25.00    5.50
   0  12   5   28.90    3.00
   0  12   5   30.80    2.80
  -1 -12  -5    1.70    4.00
  -1 -12  -5    9.50    7.30
   1  12   5    4.00    1.80
   1  12   5   -1.60    3.20
   1  12   5    1.80    1.40
   1  12   5   -9.20    4.10
  -2 -12  -5  174.38   13.80
  -2 -12  -5  164.38   15.90
   2  12   5  154.48   14.10
   2  12   5  173.88   11.20
   2  12   5  167.38    6.60
  -3 -12  -5  234.68   18.20
  -3 -12  -5  278.87   18.30
   3  12   5  203.98   15.40
   3  12   5  237.08    9.80
   3  12   5  233.28   13.00
  -4 -12  -5  169.18   18.10
  -4 -12  -5  153.98   14.30
   4  12   5  167.68   12.40
   4  12   5  154.68    9.20
   4  12   5  158.38   14.40
  -5 -12  -5   66.09   11.80
   5  12   5   55.79    7.50
   5  12   5   49.99    8.70
  -3  13   5    1.60    4.90
  -2  13   5   -4.90    4.60
  -2  13   5   -8.00    4.20
  -1  13   5  149.49   12.00
  -1  13   5  153.28   16.10
   0 -13  -5   12.20    5.00
   0  13   5    0.80    3.90
   0  13   5    8.70    4.50
  -1 -13  -5  134.79   16.60
  -1 -13  -5  147.09   13.00
   1  13   5  143.99   10.90
   1  13   5  154.28   13.80
  -2 -13  -5    5.50    8.40
   2  13   5   11.10    4.50
   2  13   5    2.00    5.50
  -3 -13  -5    0.00    4.60
  -3 -13  -5   -7.50    5.10
   3  13   5   -2.90    4.60
   3  13   5   -0.80    3.80
   1  11  -6    1.50    5.60
   0  11  -6   75.89   10.40
  -1  11  -6   22.10    7.00
  -2  11  -6  261.67   16.90
   3  10  -6   29.00    9.70
   3  10  -6   53.59    9.40
  -3 -10   6   37.60   10.10
   2  10  -6  151.08   14.60
   2  10  -6   98.99   15.00
  -2 -10   6   88.59   14.10
   1  10  -6  107.29   15.00
   1  10  -6  132.59   13.00
   0  10  -6   28.40   10.50
   0  10  -6   27.70    8.20
  -1  10  -6   -1.30    5.10
  -1  10  -6   -4.30    5.80
  -2  10  -6   21.10    7.10
  -2  10  -6   35.70    9.60
  -3  10  -6   66.79   10.40
  -3  10  -6   62.99   11.90
  -4  10  -6  132.99   13.20
  -4  10  -6  116.69   18.60
   5   9  -6  116.39   11.80
  -5  -9   6  130.69   15.80
   4   9  -6   14.50    5.90
  -4  -9   6   10.50    7.00
  -4  -9   6   -0.10    3.30
   3   9  -6  106.99   11.70
  -3  -9   6   93.59    5.50
  -3  -9   6   96.59    5.80
  -3  -9   6   98.49   14.50
   2   9  -6   14.40    7.70
   2   9  -6   16.10    6.40
  -2  -9   6   13.10    7.70
   1   9  -6   15.20    6.30
   0   9  -6    1.40    6.50
  -1   9  -6  145.49   16.20
   1  -9   6  155.78    6.10
   1  -9   6  159.98    6.10
  -2   9  -6   28.00    6.90
  -2   9  -6   15.50    7.80
   2  -9   6   22.80    3.40
  -3   9  -6  108.69   11.50
  -3   9  -6  116.59    8.70
  -3   9  -6  100.39   13.60
   3  -9   6  104.79    7.90
  -4   9  -6   16.70    6.80
  -4   9  -6   18.20    7.90
  -4   9  -6   10.40    5.70
   4  -9   6   12.80    4.40
  -5   9  -6   14.50    7.00
  -5   9  -6   16.70    6.60
   5  -9   6   15.10    5.00
  -6   9  -6    2.10    6.50
   6  -9   6   -0.90    5.40
  -6  -8   6   70.39    8.90
  -6  -8   6   79.39   12.60
  -5  -8   6    5.60    7.30
  -5  -8   6    3.10    4.50
   4   8  -6  113.29   12.80
  -4  -8   6  121.09    8.90
  -4  -8   6  130.19   14.90
  -4  -8   6  127.89    9.20
   3   8  -6   32.30    8.00
  -3  -8   6   23.10    4.80
  -3  -8   6   19.80    4.40
  -3  -8   6   18.00    6.90
  -2  -8   6  525.45   26.70
  -2  -8   6  508.95   15.90
   1   8  -6  204.18   17.40
   1   8  -6  171.78   13.50
  -1  -8   6  168.28    8.90
  -1  -8   6  167.38   16.30
  -1  -8   6  194.18   11.00
   0   8  -6  115.39   14.20
   0   8  -6  128.49   11.50
   0  -8   6  115.39    8.50
   0  -8   6  108.29    7.50
  -1   8  -6    0.80    5.60
  -1   8  -6   -4.40    5.40
   1  -8   6   -0.80    3.00
  -2   8  -6  245.98   10.20
  -2   8  -6  223.88   16.00
  -2   8  -6  233.78   18.30
   2  -8   6  247.78   11.80
   2  -8   6  257.87   11.00
  -3   8  -6   17.50    4.20
  -3   8  -6   25.80    8.00
  -3   8  -6   32.00    7.10
   3  -8   6   38.70    5.70
   3  -8   6   10.10    5.00
  -4   8  -6  369.86   23.80
  -4   8  -6  347.17   19.70
   4  -8   6  345.47   15.20
  -5   8  -6   35.90   10.40
  -5   8  -6   35.50    7.40
   5  -8   6   35.10    6.40
   5  -8   6   32.60    7.80
  -6   8  -6    9.50    6.20
  -6   8  -6   -5.70    4.00
   6  -8   6   -5.30    4.50
   7   7  -6   -5.60    6.60
  -7  -7   6   -5.10    5.10
  -7  -7   6    6.50    6.70
   6   7  -6  282.87   19.40
  -6  -7   6  306.37   22.50
  -5  -7   6   20.20    7.60
  -5  -7   6   20.30    5.90
  -5  -7   6   10.90    5.60
   4   7  -6  265.07   16.40
  -4  -7   6  284.47   13.60
  -4  -7   6  244.08   18.20
  -4  -7   6  245.58   13.40
  -3  -7   6   50.09    9.70
  -3  -7   6   49.20    6.40
  -3  -7   6   60.09    7.30
   2   7  -6   79.49    9.80
  -2  -7   6   65.39    7.10
  -2  -7   6   81.49   11.70
  -2  -7   6   79.39    7.30
   1   7  -6    3.50    6.80
   1   7  -6   13.60    5.70
  -1  -7   6    9.30    6.20
  -1  -7   6    1.60    3.50
  -1  -7   6    5.10    3.90
   0   7  -6  573.14   26.90
   0   7  -6  544.05   22.60
   0  -7   6  526.05   17.70
   0  -7   6  514.15   17.30
  -1   7  -6   56.89    9.60
  -1   7  -6   49.10    8.20
  -1   7  -6   43.20    3.60
   1  -7   6   49.20    6.10
   1  -7   6   36.30    5.70
  -2   7  -6  306.17   17.80
  -2   7  -6  300.87   11.90
  -2   7  -6  314.97   20.00
   2  -7   6  310.97   13.30
   2  -7   6  272.87   13.80
  -3   7  -6    2.30    5.70
  -3   7  -6    6.30    3.40
  -3   7  -6    3.60    4.80
   3  -7   6    5.70    4.30
   3  -7   6   11.00    5.00
  -4   7  -6   64.09   11.10
  -4   7  -6   62.29    7.70
  -4   7  -6   77.09   10.30
   4  -7   6   66.49    8.00
   4  -7   6   93.79    9.20
  -5   7  -6    7.60    5.90
  -5   7  -6    5.40    5.70
   5  -7   6    5.40    4.40
  -6   7  -6  250.57   17.20
  -6   7  -6  241.48   20.50
   6  -7   6  219.38   14.40
  -7   7  -6   17.00    7.50
  -7   7  -6   38.60    9.20
   7  -7   6   34.10    7.60
   7   6  -6   80.59   14.30
  -7  -6   6   70.29   10.60
   6   6  -6   28.60    8.50
  -6  -6   6   19.30    5.30
  -6  -6   6   33.90    8.40
   5   6  -6    1.90    5.50
  -5  -6   6   -7.70    4.80
  -5  -6   6   -5.30    2.10
  -5  -6   6   -2.10    4.70
  -4  -6   6   -0.80    3.80
  -4  -6   6   -5.10    3.90
  -4  -6   6    3.40    4.50
   3   6  -6  274.87   16.30
  -3  -6   6  285.37   14.40
  -3  -6   6  304.77   16.50
   2   6  -6   33.70    7.00
  -2  -6   6   39.70    8.50
  -2  -6   6   30.20    5.30
  -2  -6   6   33.60    5.70
   1   6  -6  326.17   22.80
   1   6  -6  344.37   18.20
  -1  -6   6  317.37   14.00
  -1  -6   6  316.67   18.80
  -1  -6   6  354.56   14.80
   0   6  -6   35.20    7.20
   0   6  -6   46.60    9.10
   0  -6   6   42.30    6.00
   0  -6   6   47.10    6.20
  -1   6  -6   10.00    5.70
  -1   6  -6   14.50    5.00
  -1   6  -6    7.00    2.60
   1  -6   6   10.70    4.10
   1  -6   6    5.50    4.10
  -2   6  -6    6.00    4.80
  -2   6  -6    6.10    3.20
   2  -6   6    8.40    4.30
  -3   6  -6  387.76   19.20
  -3   6  -6  387.86   15.80
  -3   6  -6  379.26   21.40
   3  -6   6  378.06   16.30
   3  -6   6  385.46   17.00
  -4   6  -6   18.80    6.70
  -4   6  -6    9.00    5.50
  -4   6  -6    5.90    4.70
   4  -6   6   22.80    5.60
   4  -6   6    9.50    4.20
  -5   6  -6  181.18   16.00
  -5   6  -6  190.38   13.80
   5  -6   6  207.98   12.80
  -6   6  -6   12.00    7.00
  -6   6  -6    5.90    6.40
   6  -6   6    6.20    4.60
  -7   6  -6   25.60    7.70
   7  -6   6    6.40    5.10
  -8   6  -6    0.50    6.60
  -8   6  -6   -6.30    4.60
   8  -6   6   -7.60    4.90
   8   5  -6   11.20    7.40
  -8  -5   6   18.10    7.00
  -8  -5   6   15.10    7.30
   7   5  -6   87.09   12.60
  -7  -5   6  103.89   12.30
  -7  -5   6   74.69    9.00
  -7  -5   6   83.39   11.70
   6   5  -6  198.58   15.40
  -6  -5   6  169.18   14.90
  -6  -5   6  175.78   14.70
  -6  -5   6  170.88   11.50
   5   5  -6  270.17   16.70
  -5  -5   6  274.97   12.00
  -5  -5   6  237.68   16.40
  -5  -5   6  275.17   16.70
  -4  -5   6   39.80    7.60
  -4  -5   6   51.39    7.80
  -4  -5   6   46.00    4.50
  -4  -5   6   33.10    4.10
  -4  -5   6   45.90    8.80
   3   5  -6   50.59    7.60
  -3  -5   6   43.40    6.40
  -3  -5   6   50.49    8.40
  -3  -5   6   42.20    6.80
   2   5  -6  165.38   12.40
  -2  -5   6  169.98   12.30
  -2  -5   6  173.68   11.60
  -2  -5   6  157.88   12.60
   1   5  -6  524.95   26.30
   1   5  -6  521.45   21.60
  -1  -5   6  510.75   22.30
  -1  -5   6  503.95   18.30
  -1  -5   6  521.05   19.40
   0   5  -6  391.96   18.60
   0   5  -6  389.36   18.30
   0   5  -6  412.26   20.00
   0   5  -6  449.16   21.40
   0  -5   6  428.76   16.70
   0  -5   6  424.26   16.90
  -1   5  -6  255.17   10.10
  -1   5  -6  281.17   17.10
  -1   5  -6  259.37   15.00
  -1   5  -6  241.98   17.10
   1  -5   6  282.37   13.40
   1  -5   6  289.57   10.30
  -2   5  -6  122.79    7.90
  -2   5  -6  118.69   11.00
  -2   5  -6  137.39   12.60
   2  -5   6  139.99   10.20
   2  -5   6  136.69    8.50
   2  -5   6  121.79    9.70
  -3   5  -6   37.60    5.60
  -3   5  -6   43.30    8.10
  -3   5  -6   27.60    6.90
   3  -5   6   39.00    5.90
   3  -5   6   47.60    7.60
   3  -5   6   37.10    6.60
  -4   5  -6  112.09   11.10
  -4   5  -6  113.59   10.40
   4  -5   6  128.89   12.80
   4  -5   6  118.59   10.80
   4  -5   6  107.69    9.60
  -5   5  -6  349.67   20.60
  -5   5  -6  348.77   19.00
   5  -5   6  342.37   18.30
   5  -5   6  363.66   18.10
  -6   5  -6  215.78   15.20
  -6   5  -6  182.58   16.10
   6  -5   6  243.48   14.90
  -7   5  -6  131.69   12.80
  -7   5  -6  129.79   14.30
   7  -5   6  142.89   13.40
  -8   5  -6   10.30    6.20
  -8   5  -6    9.30    5.90
   8  -5   6   -0.90    5.00
   8   4  -6  226.78   19.00
  -8  -4   6  206.38   16.10
  -8  -4   6  211.38   17.70
   7   4  -6   -1.10    5.50
  -7  -4   6   -6.60    5.50
  -7  -4   6   -3.80    5.70
   6   4  -6   12.20    6.40
  -6  -4   6   14.30    6.20
  -6  -4   6   19.70    6.60
   5   4  -6   86.99   11.50
  -5  -4   6   93.89   10.00
  -5  -4   6   83.39   10.00
  -5  -4   6   89.39    7.90
   4   4  -6  496.95   21.80
  -4  -4   6  459.15   20.80
  -4  -4   6  493.65   21.30
  -4  -4   6  485.25   15.70
   3   4  -6   70.49    9.00
   3   4  -6   78.49    9.30
  -3  -4   6   62.99    5.10
  -3  -4   6   69.09    8.90
  -3  -4   6   72.29    8.40
  -3  -4   6   75.09    5.30
  -3  -4   6   69.39    8.50
   2   4  -6  380.16   17.90
   2   4  -6  418.96   18.60
  -2  -4   6  402.46   10.90
  -2  -4   6  432.96   17.60
  -2  -4   6  417.76   18.70
   1   4  -6   21.30    5.20
   1   4  -6   19.70    5.20
   1   4  -6   15.40    5.00
  -1  -4   6   20.60    5.70
  -1  -4   6   12.80    2.10
  -1  -4   6   11.70    4.20
  -1  -4   6   10.30    4.90
   0   4  -6   25.20    6.00
   0   4  -6   19.00    5.60
   0   4  -6   21.10    5.50
   0   4  -6   30.30    6.10
   0  -4   6   19.90    5.10
   0  -4   6   14.80    4.60
   0  -4   6   18.10    2.80
  -1   4  -6  113.59    9.30
  -1   4  -6  100.69   11.40
  -1   4  -6  129.19   10.70
  -1   4  -6  113.49    6.90
  -1   4  -6  106.39   10.20
   1  -4   6  128.09    9.10
   1  -4   6  119.59    7.20
   1  -4   6  120.29    9.60
  -2   4  -6  893.81   29.30
  -2   4  -6  945.21   31.10
  -2   4  -6  912.71   28.10
  -2   4  -6  914.01   24.60
  -2   4  -6  917.31   30.30
   2  -4   6  936.01   25.10
   2  -4   6  876.81   30.70
   2  -4   6  908.31   26.70
  -3   4  -6  138.99    9.50
  -3   4  -6  158.08   12.80
  -3   4  -6  142.49   11.50
   3  -4   6  135.99   10.00
   3  -4   6  152.38   11.30
   3  -4   6  139.49   10.40
  -4   4  -6  256.77   14.40
  -4   4  -6  275.37   16.60
  -4   4  -6  266.47   15.40
   4  -4   6  262.57   14.50
   4  -4   6  267.87   15.30
  -5   4  -6   16.70    7.00
  -5   4  -6    1.20    8.20
   5  -4   6    7.70    5.70
   5  -4   6    4.10    4.90
  -6   4  -6   -0.20    6.40
  -6   4  -6   13.70    6.10
   6  -4   6    8.30    5.80
   6  -4   6   11.70    5.80
  -7   4  -6   85.59   11.80
  -7   4  -6  106.99   13.20
   7  -4   6  103.89   11.40
   7  -4   6   95.79   12.20
  -8   4  -6  303.37   21.90
   8  -4   6  303.27   18.70
  -9   4  -6    5.30    5.60
  -9   4  -6    5.60    7.60
   9  -4   6    8.00    5.40
   8   3  -6   29.70    8.50
  -8  -3   6   32.70    7.80
  -8  -3   6   25.90    7.20
   7   3  -6   35.80    9.30
  -7  -3   6   28.20    7.10
  -7  -3   6   49.90    8.90
   6   3  -6  312.87   18.20
  -6  -3   6  315.77   18.70
  -6  -3   6  321.87   16.40
   5   3  -6  117.39   11.40
  -5  -3   6  120.89    9.30
  -5  -3   6  134.49   11.50
  -5  -3   6  122.09   11.60
   4   3  -6  102.09    9.50
   4   3  -6  118.59   11.40
   4   3  -6  108.69    9.40
  -4  -3   6  112.69    7.90
  -4  -3   6  111.59   10.50
  -4  -3   6  105.09    9.70
   3   3  -6   36.20    6.00
   3   3  -6   35.30    6.70
  -3  -3   6   42.70    7.60
  -3  -3   6   43.30    6.50
  -3  -3   6   32.80    6.50
   2   3  -6  231.88   13.40
   2   3  -6  260.27   13.80
   2   3  -6  227.08   13.10
  -2  -3   6  247.88    9.90
  -2  -3   6  238.98   13.20
  -2  -3   6  260.77   13.70
   1   3  -6  386.86   17.30
   1   3  -6  400.76   16.70
   1   3  -6  392.56   17.70
  -1  -3   6  391.76   12.30
  -1  -3   6  374.86   16.20
  -1  -3   6  381.56   15.90
  -1  -3   6  380.36   16.60
   0   3  -6  635.04   22.70
   0   3  -6  648.74   23.60
   0   3  -6  615.04   21.30
   0   3  -6  580.54   21.50
   0  -3   6  615.14   16.70
   0  -3   6  612.84   21.20
  -1   3  -6  124.29   10.90
  -1   3  -6  121.39    7.50
  -1   3  -6  119.09    9.20
  -1   3  -6  109.79    9.90
  -1   3  -6  124.99   10.00
   1  -3   6  121.19    7.50
   1  -3   6  119.49    9.70
   1  -3   6  115.79    9.00
  -2   3  -6  130.39   12.20
  -2   3  -6   97.69    9.30
  -2   3  -6  117.49    8.30
  -2   3  -6  109.09    9.80
  -2   3  -6  112.19   10.00
   2  -3   6  108.09    9.10
   2  -3   6   99.29    9.80
   2  -3   6  107.29    8.20
  -3   3  -6    6.60    3.20
  -3   3  -6    0.80    5.00
  -3   3  -6    9.70    4.80
  -3   3  -6    9.90    4.70
   3  -3   6   -1.30    3.60
   3  -3   6    4.70    3.50
   3  -3   6    4.20    3.60
   3  -3   6    6.80    3.90
  -4   3  -6  100.99    9.90
  -4   3  -6  118.29   11.80
  -4   3  -6  135.19   11.50
   4  -3   6  127.29   11.90
   4  -3   6  123.49   11.20
   4  -3   6  124.59   10.00
  -5   3  -6  259.47   16.30
  -5   3  -6  274.07   16.40
   5  -3   6  245.98   15.50
   5  -3   6  259.17   15.00
  -6   3  -6  142.69   13.30
  -6   3  -6  129.69   12.30
   6  -3   6  136.59   21.20
   6  -3   6  118.89   12.30
  -7   3  -6   39.60    8.80
  -7   3  -6   41.30    8.40
   7  -3   6   35.10    8.90
   7  -3   6   30.80    8.30
  -8   3  -6    0.60    5.00
  -8   3  -6   14.50    7.40
  -8   3  -6   -3.80    3.70
   8  -3   6    0.90    4.40
   8  -3   6   -1.40    5.10
  -9   3  -6    0.50    4.10
  -9   3  -6   -0.60    6.00
  -9   3  -6    9.90    7.50
   9  -3   6    2.10    5.50
  -9  -2   6  245.58   17.60
  -9  -2   6  255.77   18.20
  -8  -2   6    1.10    4.70
  -8  -2   6   11.60    6.60
   7   2  -6   30.40    7.80
  -7  -2   6   21.10    7.60
  -7  -2   6   24.60    6.90
   6   2  -6   34.10    5.60
   6   2  -6   24.40    7.00
  -6  -2   6   31.00    6.60
  -6  -2   6   39.90    8.50
  -6  -2   6   29.20    6.30
   5   2  -6  576.34   19.90
  -5  -2   6  665.63   25.10
  -5  -2   6  623.74   24.90
  -5  -2   6  584.94   22.10
   4   2  -6    1.20    4.10
   4   2  -6    3.60    3.00
  -4  -2   6    5.40    4.50
  -4  -2   6    2.50    3.90
   3   2  -6 1447.86   43.50
   3   2  -6 1401.66   37.70
   3   2  -6 1440.76   36.50
   3   2  -6 1440.26   36.50
  -3  -2   6 1467.15   38.70
  -3  -2   6 1478.05   36.50
  -3  -2   6 1408.96   37.30
   2   2  -6  132.59   10.00
   2   2  -6  126.49   10.40
   2   2  -6  123.59    8.60
  -2  -2   6  141.99   10.70
  -2  -2   6  127.69    7.90
  -2  -2   6  135.39    9.30
   1   2  -6    5.90    4.50
   1   2  -6   12.70    4.30
  -1  -2   6    8.10    4.50
  -1  -2   6   21.40    5.30
  -1  -2   6   12.90    3.20
  -1  -2   6    9.90    4.30
   0   2  -6    1.50    3.00
   0   2  -6    3.60    4.10
   0   2  -6   -4.80    2.30
   0   2  -6    1.00    3.30
   0  -2   6   -0.10    2.50
   0  -2   6    2.70    4.00
   0  -2   6    1.50    3.30
  -1   2  -6 1539.45   39.70
  -1   2  -6 1626.64   36.60
  -1   2  -6 1655.43   40.80
  -1   2  -6 1531.35   39.40
  -1   2  -6 1552.34   38.20
   1  -2   6 1561.94   35.80
   1  -2   6 1503.75   38.40
   1  -2   6 1630.04   39.10
  -2   2  -6    0.90    3.80
  -2   2  -6    3.40    2.90
  -2   2  -6   -5.30    3.80
  -2   2  -6    7.50    3.40
   2  -2   6    1.30    3.50
   2  -2   6    8.40    3.80
   2  -2   6   -6.50    2.90
  -3   2  -6 1248.08   34.50
  -3   2  -6 1292.87   35.10
  -3   2  -6 1248.98   33.90
  -3   2  -6 1214.08   32.80
   3  -2   6 1243.38   33.70
   3  -2   6 1210.98   33.10
   3  -2   6 1253.27   33.70
   3  -2   6 1310.87   34.20
  -4   2  -6  126.09   10.80
  -4   2  -6  138.19   10.90
  -4   2  -6  139.19   10.90
   4  -2   6  142.39   10.80
   4  -2   6  143.79   10.90
   4  -2   6  149.99   10.70
   4  -2   6  139.39   10.30
  -5   2  -6   -0.50    3.80
  -5   2  -6   -3.60    3.60
   5  -2   6    4.10    5.60
   5  -2   6   -5.40    3.70
  -6   2  -6  104.89   12.50
  -6   2  -6  102.59   11.60
   6  -2   6  109.59   10.90
   6  -2   6  109.19   14.20
  -7   2  -6  403.36   21.80
  -7   2  -6  401.96   21.30
   7  -2   6  405.36   22.70
   7  -2   6  435.66   21.30
  -8   2  -6   -1.80    4.60
  -8   2  -6   -5.10    4.10
  -8   2  -6   -5.50    5.20
   8  -2   6    5.10    5.60
   8  -2   6   -3.40    4.60
  -9   2  -6  164.98   15.40
  -9   2  -6  161.78   19.20
  -9   2  -6  136.79   13.10
   9  -2   6  136.19   15.40
   9  -2   6  132.89   14.20
   9   1  -6   21.00    8.00
  -9  -1   6   30.40    7.90
  -9  -1   6   26.90    7.20
   8   1  -6  108.59   13.20
   8   1  -6   94.59    9.70
  -8  -1   6  116.59   12.80
  -8  -1   6   86.49   10.60
   7   1  -6  281.27   17.90
   7   1  -6  271.17   12.90
  -7  -1   6  295.67   18.00
   6   1  -6  286.07   16.80
   6   1  -6  274.87   14.60
  -6  -1   6  267.67   15.00
  -6  -1   6  289.67   16.90
   5   1  -6   18.90    6.40
   5   1  -6   22.10    4.50
  -5  -1   6   41.40    8.00
  -5  -1   6   12.90    4.80
   4   1  -6   21.00    5.00
   4   1  -6   28.10    4.70
   4   1  -6   29.30    6.60
  -4  -1   6   33.60    5.20
  -4  -1   6   37.30    7.00
   3   1  -6  161.08   11.00
   3   1  -6  187.28   10.20
   3   1  -6  169.88   11.40
   3   1  -6  183.58   10.00
  -3  -1   6  183.98   12.00
  -3  -1   6  177.38    9.60
  -3  -1   6  182.58   11.60
   2   1  -6  307.97   14.60
   2   1  -6  282.87   14.20
   2   1  -6  291.37   12.00
  -2  -1   6  291.57   12.40
  -2  -1   6  300.77   14.60
  -2  -1   6  289.67   11.90
   1   1  -6 1480.55   38.20
   1   1  -6 1506.55   37.90
   1   1  -6 1427.96   33.20
  -1  -1   6 1487.85   37.20
  -1  -1   6 1493.95   35.00
  -1  -1   6 1513.95   37.70
  -1  -1   6 1449.15   33.60
   0   1  -6  478.85   16.30
   0   1  -6  467.95   15.40
   0   1  -6  432.86   18.30
   0   1  -6  432.66   17.30
   0  -1   6  448.16   17.90
   0  -1   6  452.75   17.50
   0  -1   6  445.46   15.90
  -1   1  -6  196.68   11.00
  -1   1  -6  214.28   11.80
  -1   1  -6  217.98   11.20
  -1   1  -6  217.58   11.00
  -1   1  -6  191.88   12.00
   1  -1   6  211.58   11.90
   1  -1   6  201.68   11.80
   1  -1   6  203.18   11.20
  -2   1  -6    5.90    3.60
  -2   1  -6    1.10    3.60
  -2   1  -6    0.80    3.40
  -2   1  -6   -3.30    3.50
   2  -1   6   -0.20    3.10
   2  -1   6    6.80    4.00
   2  -1   6    2.50    3.20
  -3   1  -6  583.64   20.30
  -3   1  -6  559.54   19.80
  -3   1  -6  594.14   19.80
  -3   1  -6  584.14   21.00
   3  -1   6  551.84   19.10
   3  -1   6  555.34   20.20
   3  -1   6  567.64   19.90
   3  -1   6  590.84   21.20
  -4   1  -6   63.89    7.70
  -4   1  -6   64.59    7.90
  -4   1  -6   76.59    8.00
  -4   1  -6   70.39    7.30
   4  -1   6   54.89    7.60
   4  -1   6   66.99    7.30
   4  -1   6   75.79    7.70
   4  -1   6   66.09    8.60
  -5   1  -6 1118.19   33.50
  -5   1  -6 1189.88   34.00
   5  -1   6 1107.49   34.80
   5  -1   6 1169.48   33.80
   5  -1   6 1096.59   32.10
  -6   1  -6  170.88   13.30
  -6   1  -6  171.68   13.30
   6  -1   6  173.58   17.40
   6  -1   6  197.98   13.60
  -7   1  -6   -0.80    4.40
  -7   1  -6    7.30    6.40
  -7   1  -6   14.00    6.10
   7  -1   6    2.90    6.20
   7  -1   6    9.80    4.90
  -8   1  -6    1.70    5.30
  -8   1  -6    4.50    5.20
  -8   1  -6   -2.40    4.10
   8  -1   6   -1.90    5.00
   8  -1   6   -4.10    3.90
  -9   1  -6   75.99    9.80
  -9   1  -6   69.59   11.20
  -9   1  -6  101.29   12.00
   9  -1   6   90.79   12.80
   9  -1   6   97.29   13.30
   9   0  -6  -11.30    6.10
  -9   0   6   -6.90    5.20
  -9   0   6   11.10    6.90
   8   0  -6  216.28   17.00
   8   0  -6  228.08   10.80
  -8   0   6  234.98   17.40
  -8   0   6  212.28   15.70
   7   0  -6   -1.00    3.20
   7   0  -6   -5.90    5.70
  -7   0   6   -4.40    4.20
  -7   0   6    7.30    5.50
   6   0  -6    5.50    3.10
   6   0  -6   -0.10    4.00
  -6   0   6   12.70    5.50
  -6   0   6    4.60    4.70
   5   0  -6   -4.90    3.80
   5   0  -6   -1.20    2.30
  -5   0   6    0.50    4.40
  -5   0   6   -0.90    3.40
   4   0  -6 1409.26   37.60
   4   0  -6 1376.76   37.70
   4   0  -6 1314.57   31.30
  -4   0   6 1425.36   33.70
  -4   0   6 1340.97   37.50
   3   0  -6    3.00    3.30
   3   0  -6    3.80    3.60
   3   0  -6    6.00    4.30
  -3   0   6   -1.10    2.40
  -3   0   6    4.70    4.10
  -3   0   6    0.00    2.80
   2   0  -6  666.83   21.70
   2   0  -6  653.33   21.70
  -2   0   6  634.94   17.20
  -2   0   6  630.54   21.60
  -2   0   6  639.44   21.80
   1   0  -6    3.00    4.30
   1   0  -6    7.30    3.80
   1   0  -6    0.20    2.40
  -1   0   6    2.50    3.80
  -1   0   6    3.60    4.30
  -1   0   6    5.20    2.80
  -1   0   6    5.80    3.60
   0   0  -6   39.30    4.60
   0   0  -6   22.50    4.50
   0   0  -6   31.00    5.90
   0   0  -6   36.00    5.90
   0   0   6   29.30    5.90
   0   0   6   25.20    4.70
   0   0   6   27.20    5.90
  -1   0  -6    2.80    3.20
  -1   0  -6   -1.70    2.40
  -1   0  -6    6.40    4.00
  -1   0  -6    0.40    3.80
   1   0   6   -2.20    3.20
   1   0   6    2.80    4.00
   1   0   6    2.00    4.20
  -2   0  -6 2393.26   53.09
  -2   0  -6 2503.05   53.99
  -2   0  -6 2442.06   53.69
  -2   0  -6 2486.15   51.29
   2   0   6 2502.75   53.69
   2   0   6 2459.35   50.69
   2   0   6 2547.34   54.59
  -3   0  -6    4.60    3.90
  -3   0  -6    4.30    3.70
  -3   0  -6    3.20    3.50
   3   0   6    4.40    2.90
   3   0   6    2.70    4.70
   3   0   6    7.80    4.30
   3   0   6    5.40    3.30
  -4   0  -6  572.64   20.80
  -4   0  -6  569.54   19.70
  -4   0  -6  528.65   19.70
  -4   0  -6  537.85   21.00
   4   0   6  610.64   23.00
   4   0   6  551.14   20.50
   4   0   6  559.64   20.40
   4   0   6  572.54   19.10
  -5   0  -6    1.00    3.70
  -5   0  -6   -0.20    3.40
   5   0   6    3.40    3.30
   5   0   6   -0.20    3.90
   5   0   6   -0.30    3.50
  -6   0  -6   45.90    7.70
  -6   0  -6   52.89    9.10
  -6   0  -6   36.40    6.90
   6   0   6   44.50    9.90
  -7   0  -6   -0.10    3.90
  -7   0  -6    7.70    5.30
  -7   0  -6    5.80    4.30
   7   0   6    1.60    5.50
   7   0   6   -3.00    5.00
  -8   0  -6  511.95   25.00
  -8   0  -6  525.55   23.50
  -8   0  -6  525.15   24.40
   8   0   6  510.65   26.60
   8   0   6  533.95   24.90
  -9   0  -6    1.20    4.00
  -9   0  -6    2.10    4.70
   9   0   6   -0.10    5.70
   9   0   6    2.70    5.50
 -10   0  -6   38.60   10.70
 -10   0  -6   42.00    8.10
   9  -1  -6   57.49   10.60
  -9   1   6   71.99   12.30
  -9   1   6   67.09    9.80
   8  -1  -6  139.99    7.90
   8  -1  -6  121.89   14.50
  -8   1   6  181.08   14.50
  -8   1   6  152.28   13.10
   7  -1  -6  190.08    8.50
   7  -1  -6  204.98   15.10
  -7   1   6  221.98   15.50
  -7   1   6  188.78   13.30
   6  -1  -6  260.87   15.80
   6  -1  -6  231.88    9.50
  -6   1   6  241.78   13.30
  -6   1   6  274.77   16.80
   5  -1  -6    3.20    2.30
   5  -1  -6    4.20    4.20
  -5   1   6    3.50    3.30
  -5   1   6    3.50    5.30
   4  -1  -6    0.80    3.30
   4  -1  -6    1.80    2.20
   4  -1  -6    1.90    3.10
  -4   1   6    7.30    4.30
  -4   1   6   -1.00    2.40
   3  -1  -6  346.17   14.90
   3  -1  -6  350.96   15.60
   3  -1  -6  309.77   14.80
  -3   1   6  335.17   15.00
  -3   1   6  321.57   11.30
  -3   1   6  351.96   15.60
   2  -1  -6  582.94   18.50
   2  -1  -6  598.34   19.90
   2  -1  -6  594.54   20.80
  -2   1   6  606.34   20.50
  -2   1   6  585.04   14.50
  -2   1   6  597.34   20.50
   1  -1  -6 1381.16   26.50
   1  -1  -6 1356.36   34.70
   1  -1  -6 1354.86   33.80
  -1   1   6 1337.37   35.20
  -1   1   6 1346.27   34.30
   0  -1  -6  460.85   11.90
   0  -1  -6  459.15   16.80
   0   1   6  467.75   17.90
   0   1   6  460.85   17.20
   0   1   6  472.85   18.00
  -1  -1  -6   71.59    8.30
  -1  -1  -6   64.99    7.40
  -1  -1  -6   74.39    8.90
  -1  -1  -6   67.49    5.50
   1   1   6   57.79    7.00
   1   1   6   65.29    7.90
  -2  -1  -6    8.50    4.80
  -2  -1  -6    4.90    2.60
  -2  -1  -6    3.90    3.60
  -2  -1  -6    7.00    3.40
   2   1   6    6.90    3.70
   2   1   6   -0.30    3.70
   2   1   6    6.60    4.00
  -3  -1  -6 1302.47   33.90
  -3  -1  -6 1322.17   35.70
  -3  -1  -6 1359.76   34.10
  -3  -1  -6 1323.57   31.10
   3   1   6 1342.37   34.80
   3   1   6 1419.36   37.00
   3   1   6 1365.66   31.10
  -4  -1  -6   96.49    8.30
  -4  -1  -6   95.19    9.30
  -4  -1  -6   88.79    7.90
  -4  -1  -6   83.19    8.30
   4   1   6   88.59   10.00
   4   1   6   82.39    7.80
   4   1   6   91.69    8.60
   4   1   6   75.49    7.00
  -5  -1  -6  794.72   26.40
  -5  -1  -6  837.82   27.20
  -5  -1  -6  833.52   25.60
   5   1   6  808.52   29.20
   5   1   6  824.22   27.30
   5   1   6  795.62   24.50
  -6  -1  -6   91.69    9.60
  -6  -1  -6   93.89   10.90
  -6  -1  -6   81.29    9.30
   6   1   6   95.29    9.40
   6   1   6   96.29   12.50
   6   1   6  114.49   14.70
  -7  -1  -6   29.60    7.20
  -7  -1  -6   26.20    6.30
  -7  -1  -6   23.20    6.40
   7   1   6   30.50    7.30
   7   1   6   25.20    7.40
  -8  -1  -6   23.20    6.90
  -8  -1  -6   31.30    6.60
  -8  -1  -6   12.80    5.70
   8   1   6   26.90    7.50
   8   1   6   22.00    6.90
  -9  -1  -6  134.19   12.00
  -9  -1  -6  173.58   15.30
  -9  -1  -6  138.99   13.50
   9   1   6  124.09   15.30
   9   1   6  148.89   19.70
 -10  -1  -6   66.09   11.70
 -10  -1  -6   62.49   10.10
 -10  -1  -6   63.49   10.70
   9  -2  -6  151.08   15.30
  -9   2   6  141.89   15.70
  -9   2   6  168.78   15.20
   8  -2  -6   22.60    7.80
  -8   2   6   17.90    6.00
  -8   2   6   17.60    6.80
   7  -2  -6   59.29    9.80
  -7   2   6   55.49    8.20
  -7   2   6   68.59   10.40
   6  -2  -6    3.50    6.00
   6  -2  -6    9.00    2.00
  -6   2   6   10.90    4.70
  -6   2   6    5.80    5.20
   5  -2  -6  828.12   18.90
   5  -2  -6  876.11   28.40
  -5   2   6  873.61   25.20
  -5   2   6  895.31   29.10
   4  -2  -6    1.50    1.70
   4  -2  -6    3.00    3.10
  -4   2   6    0.90    4.50
  -4   2   6   -1.40    2.40
   3  -2  -6  714.43   22.30
   3  -2  -6  730.03   22.10
   3  -2  -6  725.53   23.60
  -3   2   6  741.83   23.70
  -3   2   6  795.62   24.30
  -3   2   6  714.33   17.50
   2  -2  -6    7.40    4.30
   2  -2  -6    7.20    3.30
   2  -2  -6   11.70    4.00
  -2   2   6    9.80    1.70
  -2   2   6   11.30    4.40
  -2   2   6   10.50    4.20
   1  -2  -6  450.25   13.40
   1  -2  -6  428.46   15.50
  -1   2   6  443.96   16.70
  -1   2   6  425.86   16.70
  -1   2   6  445.16   18.10
   0  -2  -6    3.40    3.80
   0  -2  -6    4.50    1.20
   0  -2  -6    4.60    3.40
   0   2   6   12.90    4.50
   0   2   6    3.20    4.90
  -1  -2  -6 1657.03   31.30
  -1  -2  -6 1608.24   40.80
  -1  -2  -6 1661.13   37.60
  -1  -2  -6 1621.44   36.80
   1   2   6 1622.04   40.70
   1   2   6 1519.95   42.10
   1   2   6 1533.95   36.70
  -2  -2  -6    4.10    3.60
  -2  -2  -6    4.00    3.40
  -2  -2  -6    7.10    2.20
   2   2   6    2.30    4.10
   2   2   6    6.40    4.00
   2   2   6    4.10    2.00
   2   2   6    1.20    3.30
  -3  -2  -6  334.87   13.80
  -3  -2  -6  323.37   11.40
  -3  -2  -6  332.37   13.80
  -3  -2  -6  345.17   15.00
   3   2   6  331.77   14.30
   3   2   6  327.67   11.30
   3   2   6  360.26   16.90
   3   2   6  340.67   14.60
  -4  -2  -6  212.28   11.70
  -4  -2  -6  218.38   11.70
  -4  -2  -6  221.58   10.70
  -4  -2  -6  207.68   12.30
  -4  -2  -6  206.78   12.90
   4   2   6  223.28   12.20
   4   2   6  224.68   14.30
   4   2   6  208.58   12.50
   4   2   6  200.58    9.90
  -5  -2  -6  338.17   15.60
  -5  -2  -6  343.77   15.30
  -5  -2  -6  348.77   16.60
  -5  -2  -6  342.07   14.70
   5   2   6  324.97   13.90
   5   2   6  329.37   18.30
   5   2   6  313.97   15.90
  -6  -2  -6    8.00    4.90
  -6  -2  -6   12.10    5.30
  -6  -2  -6   -2.70    3.80
   6   2   6    2.00    3.70
   6   2   6    1.10    4.30
  -7  -2  -6  598.64   24.30
  -7  -2  -6  600.24   24.20
  -7  -2  -6  574.64   23.60
   7   2   6  591.54   25.00
   7   2   6  580.04   27.00
  -8  -2  -6   44.50    7.70
  -8  -2  -6   44.10    8.40
  -8  -2  -6   56.29    8.60
   8   2   6   57.79   10.50
   8   2   6   57.39   10.40
  -9  -2  -6   23.40    7.00
  -9  -2  -6   26.40    7.30
  -9  -2  -6   34.60    8.30
   9   2   6   26.00   10.10
   9   2   6   20.40    8.80
 -10  -2  -6   10.20    6.30
 -10  -2  -6   16.90    7.50
   9  -3  -6    9.90    6.60
  -9   3   6    9.40    6.80
  -9   3   6   18.90    6.70
   8  -3  -6  155.98   14.20
  -8   3   6  133.19   14.70
  -8   3   6  141.29   12.50
   7  -3  -6  125.89   12.90
  -7   3   6  121.09   10.50
  -7   3   6  142.19   13.10
  -6   3   6  375.96   19.10
  -6   3   6  359.06   16.10
   5  -3  -6   17.80    5.20
  -5   3   6   29.10    6.80
   4  -3  -6   70.69    3.50
   4  -3  -6   73.39    8.30
   4  -3  -6   74.49    8.60
   4  -3  -6   73.39    7.40
  -4   3   6   62.79    5.80
  -4   3   6   86.49    8.60
   3  -3  -6  241.58   11.50
   3  -3  -6  248.78   12.40
   3  -3  -6  243.98   11.60
  -3   3   6  248.38   12.60
  -3   3   6  241.48    8.20
  -3   3   6  234.48   12.60
   2  -3  -6  587.24   16.90
   2  -3  -6  566.54   20.00
   2  -3  -6  563.84   18.10
  -2   3   6  545.25   19.40
  -2   3   6  583.54   19.40
   1  -3  -6  522.75   17.80
   1  -3  -6  537.95   17.10
   1  -3  -6  537.25   14.00
  -1   3   6  541.05   20.80
  -1   3   6  524.35   18.80
   0  -3  -6  895.31   23.20
   0  -3  -6  884.31   17.30
   0  -3  -6  841.92   23.00
   0   3   6  851.01   24.70
   0   3   6  919.91   25.40
   0   3   6  899.41   28.50
  -1  -3  -6   33.10    5.00
  -1  -3  -6   36.90    5.20
  -1  -3  -6   45.00    4.00
  -1  -3  -6   34.80    6.40
   1   3   6   36.70    6.30
   1   3   6   45.10    6.50
   1   3   6   35.00    5.00
  -2  -3  -6   43.80    5.50
  -2  -3  -6   41.80    3.10
  -2  -3  -6   45.90    5.90
  -2  -3  -6   44.40    5.70
  -2  -3  -6   34.80    6.10
   2   3   6   44.50    5.60
   2   3   6   35.00    6.60
   2   3   6   43.50    3.10
  -3  -3  -6  381.46   16.10
  -3  -3  -6  367.86   14.50
  -3  -3  -6  371.56   13.90
  -3  -3  -6  373.46   17.30
  -3  -3  -6  393.06   11.90
   3   3   6  400.06   18.40
   3   3   6  392.06   15.30
   3   3   6  402.96   16.10
   3   3   6  384.16   11.30
  -4  -3  -6  633.64   20.60
  -4  -3  -6  588.74   23.20
  -4  -3  -6  629.04   18.40
  -4  -3  -6  611.64   21.90
  -4  -3  -6  616.54   20.00
   4   3   6  594.64   17.70
   4   3   6  653.33   25.00
   4   3   6  638.64   21.00
   4   3   6  626.54   21.80
  -5  -3  -6  670.43   22.20
  -5  -3  -6  673.93   21.30
  -5  -3  -6  690.73   24.20
  -5  -3  -6  661.63   22.10
   5   3   6  671.33   26.50
   5   3   6  633.14   20.30
   5   3   6  667.33   24.00
  -6  -3  -6  154.58   11.40
  -6  -3  -6  146.29   11.40
   6   3   6  157.28   14.50
   6   3   6  140.69   11.60
   6   3   6  140.89   10.10
  -7  -3  -6   -4.30    4.70
  -7  -3  -6   -1.40    3.30
   7   3   6    2.50    4.00
   7   3   6   -6.40    5.80
  -8  -3  -6   34.70    8.00
  -8  -3  -6   37.00    8.20
  -8  -3  -6   32.90    7.90
   8   3   6   33.50    9.40
   8   3   6   27.40    7.60
  -9  -3  -6   14.00    7.30
  -9  -3  -6   21.90    7.50
  -9  -3  -6   18.60    6.10
   9   3   6   25.30    9.20
   9   3   6    7.80    7.50
   9  -4  -6  -12.30    5.80
  -9   4   6   -8.10    3.90
  -9   4   6    9.20    7.70
   8  -4  -6    6.20    6.40
  -8   4   6   -1.70    5.70
  -8   4   6   -9.10    4.70
   7  -4  -6   22.20    6.90
  -7   4   6   14.40    7.40
  -6   4   6  477.75   21.60
  -6   4   6  496.15   22.20
   5  -4  -6   64.59    7.90
  -5   4   6   60.89    8.40
  -5   4   6   51.49    7.70
   4  -4  -6  796.92   27.30
   4  -4  -6  794.22   25.40
   4  -4  -6  809.52   25.00
  -4   4   6  796.72   25.00
  -4   4   6  796.82   25.70
   3  -4  -6   78.19    7.20
   3  -4  -6   73.59    6.90
   3  -4  -6   81.09    8.10
   3  -4  -6   77.39    4.10
  -3   4   6   83.09    7.90
  -3   4   6   73.49    7.20
   2  -4  -6   23.60    3.60
   2  -4  -6   25.20    5.40
   2  -4  -6   28.50    4.60
   2  -4  -6   21.20    3.30
  -2   4   6   39.10    6.10
  -2   4   6   23.60    5.30
  -2   4   6   26.40    2.30
   1  -4  -6   80.19    6.00
   1  -4  -6   95.29    6.30
   1  -4  -6   72.89    4.40
   1  -4  -6   75.49    6.80
  -1   4   6   83.29    7.20
  -1   4   6   83.99    9.30
  -1   4   6   72.59    7.80
   0  -4  -6 2313.27   47.70
   0  -4  -6 2333.77   46.00
   0  -4  -6 2257.97   45.60
   0   4   6 2379.96   55.89
   0   4   6 2160.88   48.80
   0   4   6 2263.17   48.60
  -1  -4  -6  130.69   10.90
  -1  -4  -6  129.19    8.60
  -1  -4  -6  113.99    7.00
  -1  -4  -6  120.09    6.80
  -1  -4  -6  120.59    6.10
   1   4   6  124.29    9.00
   1   4   6  123.49   11.00
   1   4   6  119.39    7.70
  -2  -4  -6 1356.26   31.10
  -2  -4  -6 1369.06   31.40
  -2  -4  -6 1396.26   34.40
  -2  -4  -6 1334.27   30.10
  -2  -4  -6 1356.36   39.80
   2   4   6 1343.27   38.50
   2   4   6 1381.76   32.60
   2   4   6 1388.56   33.90
  -3  -4  -6    1.10    3.40
  -3  -4  -6    3.40    3.00
  -3  -4  -6    8.90    4.90
  -3  -4  -6    3.60    3.00
  -3  -4  -6   -1.90    2.70
   3   4   6   -2.70    3.20
   3   4   6    5.80    4.40
   3   4   6    2.40    2.70
   3   4   6    4.10    1.70
  -4  -4  -6   96.59    9.40
  -4  -4  -6   80.59    7.20
  -4  -4  -6   83.49    8.60
  -4  -4  -6   82.09    7.10
   4   4   6   86.79    8.20
   4   4   6   85.79    8.00
   4   4   6   72.59    5.70
   4   4   6   92.39   10.30
  -5  -4  -6   80.19    8.00
  -5  -4  -6   97.19    9.80
  -5  -4  -6   74.79    9.00
  -5  -4  -6   95.69    8.10
   5   4   6   81.39    7.10
   5   4   6   77.59    9.40
   5   4   6   72.39   10.10
  -6  -4  -6  545.85   20.10
  -6  -4  -6  572.54   24.60
  -6  -4  -6  575.04   20.80
  -6  -4  -6  566.34   23.20
   6   4   6  540.75   20.40
   6   4   6  609.24   23.40
   6   4   6  561.24   25.40
  -7  -4  -6    0.00    3.60
  -7  -4  -6    1.70    6.10
  -7  -4  -6    2.80    4.70
   7   4   6    1.30    5.90
   7   4   6    2.20    4.30
  -8  -4  -6  264.17   15.60
  -8  -4  -6  262.37   19.40
  -8  -4  -6  279.67   17.30
   8   4   6  285.17   18.80
   8   4   6  262.37   19.80
  -9  -4  -6    9.90    6.40
  -9  -4  -6    3.70    5.40
  -9  -4  -6    4.50    5.00
   9   4   6   -0.40    6.90
   9   4   6    1.50    5.70
   8  -5  -6  101.39   11.20
  -8   5   6   81.79   11.80
   7  -5  -6  118.49   12.30
  -7   5   6  139.89   14.00
  -7   5   6  126.29   13.80
  -6   5   6    5.80    4.50
  -6   5   6    1.30    5.60
   5  -5  -6   57.59    7.80
   5  -5  -6   48.80    7.00
  -5   5   6   37.20    7.20
  -5   5   6   51.59    7.90
   4  -5  -6  251.67   11.80
   4  -5  -6  268.97   15.30
   4  -5  -6  267.07   13.20
  -4   5   6  267.17   14.00
  -4   5   6  248.48   13.50
   3  -5  -6  942.81   19.40
   3  -5  -6  941.01   24.20
   3  -5  -6  924.71   25.40
  -3   5   6  970.40   25.70
  -3   5   6  960.70   27.10
  -3   5   6  946.01   23.80
  -3   5   6  897.81   26.70
   2  -5  -6  327.67   10.60
   2  -5  -6  346.47   12.90
   2  -5  -6  343.87   11.80
   2  -5  -6  355.16   12.30
  -2   5   6  353.56    9.80
  -2   5   6  343.57   13.90
  -2   5   6  338.67   14.30
  -2   5   6  345.67   11.90
   1  -5  -6  798.82   20.80
   1  -5  -6  819.62   19.50
   1  -5  -6  805.92   18.20
   1  -5  -6  802.62   18.80
  -1   5   6  852.41   22.90
  -1   5   6  810.92   17.00
  -1   5   6  768.42   23.20
  -1   5   6  816.02   28.30
   0  -5  -6   61.19    4.20
   0  -5  -6   58.39    5.70
   0  -5  -6   64.69    4.30
   0  -5  -6   64.19    4.70
   0   5   6   72.99    6.40
   0   5   6   80.89    9.70
   0   5   6   63.09    6.40
  -1  -5  -6   55.79    5.30
  -1  -5  -6   52.89    3.80
  -1  -5  -6   55.69    3.80
  -1  -5  -6   58.39    6.50
   1   5   6   53.89    5.10
   1   5   6   58.99    6.60
   1   5   6   60.09    8.90
  -2  -5  -6  524.85   22.30
  -2  -5  -6  528.95   14.00
  -2  -5  -6  532.45   18.80
  -2  -5  -6  519.25   16.90
  -2  -5  -6  541.35   13.90
   2   5   6  555.84   18.30
   2   5   6  487.85   16.10
   2   5   6  522.05   22.50
  -3  -5  -6  911.71   27.50
  -3  -5  -6  926.81   31.30
  -3  -5  -6  946.51   27.10
  -3  -5  -6  900.41   21.70
  -3  -5  -6  929.21   25.30
   3   5   6  902.51   19.80
   3   5   6  949.80   31.70
   3   5   6  906.51   25.50
   3   5   6  901.81   24.80
  -4  -5  -6   82.79    9.60
  -4  -5  -6   87.49    7.40
  -4  -5  -6   85.89    8.70
  -4  -5  -6   70.89    6.20
   4   5   6   81.79    8.70
   4   5   6   81.79   10.40
   4   5   6   73.39    7.80
   4   5   6   69.29    5.80
  -5  -5  -6  549.05   18.00
  -5  -5  -6  521.45   17.90
  -5  -5  -6  518.15   22.40
  -5  -5  -6  566.54   22.90
   5   5   6  529.05   17.70
   5   5   6  533.25   24.80
   5   5   6  578.44   21.30
  -6  -5  -6  124.19   12.10
  -6  -5  -6  128.89   11.80
  -6  -5  -6  112.79    9.10
   6   5   6  106.19   10.50
   6   5   6  122.39   13.10
   6   5   6  123.89   11.30
  -7  -5  -6   82.49    8.60
  -7  -5  -6   79.29   10.90
  -7  -5  -6   74.49   11.60
   7   5   6   78.19   10.50
   7   5   6   81.79   11.40
  -8  -5  -6  115.49   13.80
  -8  -5  -6  105.49   10.60
  -8  -5  -6  111.99   12.50
   8   5   6  122.29   12.40
   8   5   6  111.09   13.60
  -9  -5  -6  200.08   16.00
  -9  -5  -6  208.38   19.00
  -9  -5  -6  207.78   14.20
   9   5   6  201.98   17.10
   9   5   6  187.68   19.10
  -8   6   6    1.30    6.00
  -7   6   6   88.49   11.30
  -7   6   6  108.09   12.90
   6  -6  -6   81.29    9.30
  -6   6   6   75.19   10.70
  -6   6   6   92.59   12.60
   5  -6  -6  649.64   22.10
   5  -6  -6  712.33   22.90
  -5   6   6  717.53   25.30
  -5   6   6  687.43   25.20
   4  -6  -6  145.99    9.90
   4  -6  -6  124.69   10.10
   4  -6  -6  123.19    7.90
  -4   6   6  129.49   10.20
  -4   6   6  130.29   10.80
   3  -6  -6  201.88    6.80
   3  -6  -6  200.48    9.00
   3  -6  -6  220.78   10.00
   3  -6  -6  208.98   10.80
  -3   6   6  183.18   10.90
  -3   6   6  194.18    9.40
  -3   6   6  203.38   11.30
   2  -6  -6   13.70    2.80
   2  -6  -6   19.80    2.90
   2  -6  -6   17.60    2.70
   2  -6  -6   14.60    3.10
  -2   6   6   19.50    5.40
  -2   6   6   16.80    4.10
  -2   6   6   15.00    2.90
  -2   6   6   22.00    3.80
   1  -6  -6  516.35   13.80
   1  -6  -6  500.05   15.50
  -1   6   6  487.75   13.40
  -1   6   6  486.75   16.30
  -1   6   6  490.25   13.00
  -1   6   6  453.95   16.50
  -1   6   6  533.25   23.30
   0  -6  -6  393.06   14.60
   0  -6  -6  395.16   13.20
   0   6   6  364.46   13.60
   0   6   6  367.36   13.80
   0   6   6  386.56   19.80
   0   6   6  358.46   13.50
  -1  -6  -6 1397.26   32.80
  -1  -6  -6 1425.26   35.00
   1   6   6 1364.16   31.60
   1   6   6 1394.16   33.20
   1   6   6 1446.86   41.80
  -2  -6  -6  206.48   10.80
  -2  -6  -6  189.18   14.00
  -2  -6  -6  202.38   11.60
   2   6   6  182.28   13.90
   2   6   6  203.18   10.60
   2   6   6  204.98    9.70
  -3  -6  -6   83.39    3.70
  -3  -6  -6   72.39    8.20
  -3  -6  -6   89.89    9.00
  -3  -6  -6   85.29    3.60
   3   6   6   81.49    4.80
   3   6   6   83.99    6.80
   3   6   6   96.29   11.00
  -4  -6  -6   18.60    3.30
  -4  -6  -6    8.00    5.40
  -4  -6  -6   10.20    4.70
  -4  -6  -6   16.90    3.10
   4   6   6   10.90    3.60
   4   6   6   16.10    4.50
   4   6   6    8.00    6.40
   4   6   6   11.70    2.80
  -5  -6  -6  533.75   16.40
  -5  -6  -6  576.04   23.30
  -5  -6  -6  515.85   16.90
  -5  -6  -6  532.35   22.70
   5   6   6  531.95   20.50
   5   6   6  579.24   29.60
   5   6   6  520.65   17.50
  -6  -6  -6  144.09    9.40
  -6  -6  -6  146.79   13.60
  -6  -6  -6  156.38    9.10
  -6  -6  -6  133.49   12.40
   6   6   6  132.69   14.30
   6   6   6  139.09   12.00
   6   6   6  130.69   10.40
  -7  -6  -6  289.47   18.70
  -7  -6  -6  281.87   19.20
  -7  -6  -6  285.77   14.20
  -7  -6  -6  287.57   13.50
   7   6   6  285.57   17.20
   7   6   6  294.57   21.20
  -8  -6  -6   40.90    6.90
  -8  -6  -6   49.50    9.40
  -8  -6  -6   47.80   10.40
   8   6   6   42.70    9.30
   8   6   6   51.99    9.30
  -9  -6  -6   18.60    6.10
  -9  -6  -6   -2.70    5.70
  -9  -6  -6   11.90    5.60
   9   6   6   12.80    8.20
   9   6   6    4.10    6.40
   8  -7  -6  161.28   13.70
  -8   7   6  162.28   15.40
  -8   7   6  159.08   17.50
   7  -7  -6   10.70    4.90
  -7   7   6   12.20    5.70
  -7   7   6   33.50    7.20
   6  -7  -6   15.50    5.00
   6  -7  -6   10.70    4.60
  -6   7   6    4.10    5.30
  -6   7   6    6.40    6.10
   5  -7  -6   10.90    4.40
   5  -7  -6    5.90    3.90
  -5   7   6   -2.80    3.60
  -5   7   6    3.90    4.50
   4  -7  -6  533.65   20.50
   4  -7  -6  539.15   15.70
   4  -7  -6  551.14   16.80
  -4   7   6  556.84   21.10
  -4   7   6  525.65   19.40
  -4   7   6  563.54   20.90
   3  -7  -6  158.28    5.90
   3  -7  -6  168.58    5.80
   3  -7  -6  150.38    6.40
   3  -7  -6  164.98   10.10
  -3   7   6  165.78   10.20
  -3   7   6  156.38    9.10
  -3   7   6  161.58   10.20
  -3   7   6  156.98   10.30
   2  -7  -6  364.36   12.30
   2  -7  -6  375.66   13.70
  -2   7   6  358.26   12.70
  -2   7   6  367.56   13.20
  -2   7   6  371.66   14.60
  -1   7   6  126.69    7.90
  -1   7   6  120.29    8.40
  -1   7   6  133.49    6.60
  -1   7   6  127.89    7.40
  -1   7   6  138.59   14.00
   0  -7  -6   69.99    7.50
   0  -7  -6   67.79    6.80
   0   7   6   58.19    5.90
   0   7   6   70.19    5.90
   0   7   6   67.29    6.50
   0   7   6   55.69    8.80
   0   7   6   72.59    6.10
   0   7   6   66.49    3.70
  -1  -7  -6    0.80    3.20
  -1  -7  -6    7.70    4.50
   1   7   6    2.10    2.90
   1   7   6   -5.20    2.50
   1   7   6    1.00    2.50
   1   7   6    2.00    4.40
   1   7   6    2.50    3.00
  -2  -7  -6  956.80   28.40
  -2  -7  -6  955.80   27.60
   2   7   6  985.40   25.40
   2   7   6  927.11   19.10
   2   7   6  915.21   23.60
   2   7   6  917.81   19.00
   2   7   6  900.31   32.60
  -3  -7  -6  146.29   11.20
  -3  -7  -6  126.69   10.60
   3   7   6  136.69    6.40
   3   7   6  149.49   13.90
   3   7   6  152.18    8.70
  -4  -7  -6   79.79   11.80
  -4  -7  -6   85.19    9.50
   4   7   6   94.39    8.40
   4   7   6   98.39    8.30
   4   7   6   97.39    6.70
   4   7   6  122.19   13.40
  -5  -7  -6  232.48   15.60
  -5  -7  -6  216.38    6.90
  -5  -7  -6  230.48   15.40
  -5  -7  -6  218.58    6.70
   5   7   6  197.98   15.70
   5   7   6  215.58   12.80
   5   7   6  219.88   11.10
  -6  -7  -6   62.89    9.50
  -6  -7  -6   72.29    5.80
  -6  -7  -6   67.49   10.20
   6   7   6   50.79    6.60
   6   7   6   43.20    9.10
   6   7   6   72.69    9.40
  -7  -7  -6   -0.70    5.70
  -7  -7  -6   -6.10    4.00
  -7  -7  -6    4.30    3.50
  -7  -7  -6  -10.00    4.40
   7   7   6    0.80    5.10
   7   7   6   -0.30    6.20
  -8  -7  -6  320.47   25.90
  -8  -7  -6  336.87   20.50
  -8  -7  -6  316.87   14.30
   8   7   6  276.97   20.40
   8   7   6  328.77   19.40
   7  -8  -6   27.90    5.80
  -7   8   6   28.90    6.50
  -7   8   6   30.00    7.30
   6  -8  -6  255.37   12.20
   6  -8  -6  275.27   13.10
  -6   8   6  256.77   16.40
  -6   8   6  227.38   16.10
   5  -8  -6  106.09    7.00
  -5   8   6   97.19    9.50
  -5   8   6  104.59   10.60
  -5   8   6  107.69    9.90
   4  -8  -6    3.10    3.90
  -4   8   6    3.90    4.30
  -4   8   6   12.30    4.20
  -4   8   6   10.30    4.30
   3  -8  -6  128.09   10.00
   3  -8  -6  138.69    6.80
  -3   8   6  131.99    9.10
  -3   8   6  141.19    9.80
  -3   8   6  130.29    9.50
  -3   8   6  146.59   10.20
   2  -8  -6  201.18   10.90
   2  -8  -6  186.18    9.20
  -2   8   6  208.38   10.40
  -2   8   6  203.28   15.60
  -2   8   6  199.88   10.60
  -2   8   6  199.58   10.60
   1  -8  -6  108.69    8.00
  -1   8   6  116.89    6.90
  -1   8   6  102.39    7.40
  -1   8   6  115.09   12.70
  -1   8   6  101.19    7.30
  -1   8   6  114.99    7.50
   0  -8  -6  516.15   18.40
   0  -8  -6  551.84   23.50
   0   8   6  508.85   15.60
   0   8   6  509.35   17.60
   0   8   6  507.15   16.20
   0   8   6  522.75   13.90
   0   8   6  533.05   25.00
   0   8   6  541.05   19.00
  -1  -8  -6  218.98   12.80
  -1  -8  -6  200.28   11.90
   1   8   6  188.38    8.60
   1   8   6  211.68   14.30
   1   8   6  190.58   10.50
   1   8   6  196.18   16.00
   1   8   6  198.68    7.20
   1   8   6  203.28    9.70
  -2  -8  -6   18.30    5.60
  -2  -8  -6   19.80    5.10
   2   8   6   13.50    2.50
   2   8   6    8.00    3.00
   2   8   6   15.00    3.70
   2   8   6   10.00    2.30
   2   8   6    1.80    4.60
  -3  -8  -6   47.20    7.60
  -3  -8  -6   54.19    9.50
   3   8   6   51.09    5.60
   3   8   6   54.99    6.00
   3   8   6   54.19    5.10
   3   8   6   47.50    8.50
   3   8   6   54.79    6.10
  -4  -8  -6  272.07   16.00
  -4  -8  -6  289.97   16.40
   4   8   6  238.08   26.80
   4   8   6  274.57   11.30
   4   8   6  271.67   12.60
   4   8   6  273.17   13.10
  -5  -8  -6  179.18   13.90
  -5  -8  -6  165.38   15.60
   5   8   6  191.58   11.80
   5   8   6  167.98   14.90
   5   8   6  174.18   10.30
  -6  -8  -6  157.98   14.00
  -6  -8  -6  175.48   15.90
   6   8   6  171.08   11.20
   6   8   6  197.48   13.70
   6   8   6  151.98   14.50
  -7  -8  -6   66.49   11.70
   7   8   6   74.59   11.10
   7   8   6   90.59   10.50
  -8  -8  -6    8.10    5.70
  -8  -8  -6    0.10    5.00
   8   8   6  -10.00    4.70
  -7   9   6  100.99   11.70
  -7   9   6  104.79   12.40
   6  -9  -6   -4.70    2.60
  -6   9   6    3.30    4.40
  -6   9   6    1.60    4.60
  -5   9   6   97.99   17.10
  -5   9   6   99.49   11.70
  -4   9   6   45.10    6.50
  -4   9   6   45.60    6.90
  -4   9   6   44.00    7.30
   3  -9  -6  657.23   23.40
  -3   9   6  694.73   21.80
  -3   9   6  657.63   22.40
  -3   9   6  651.83   21.60
   2  -9  -6   50.09    6.70
   2  -9  -6   55.59    6.20
  -2   9   6   35.90    5.10
  -2   9   6   69.89    6.70
  -2   9   6   49.80    6.10
  -2   9   6   44.20    6.30
  -2   9   6   46.40    9.00
   1  -9  -6  244.18   12.10
  -1   9   6  238.18   10.20
  -1   9   6  221.28   10.40
  -1   9   6  237.78   10.50
  -1   9   6  235.78   12.10
  -1   9   6  238.48   12.00
   0  -9  -6    5.60    4.10
   0  -9  -6    7.40    5.00
   0   9   6    5.10    2.60
   0   9   6    1.00    3.00
   0   9   6    1.70    3.30
   0   9   6    2.40    3.20
   0   9   6    2.70    2.10
   0   9   6   -2.60    4.70
  -1  -9  -6  219.48   14.30
  -1  -9  -6  194.38   12.50
   1   9   6  199.28    9.60
   1   9   6  189.88    8.70
   1   9   6  211.48   12.00
   1   9   6  196.48   15.80
   1   9   6  206.28    8.60
  -2  -9  -6   29.90    6.40
  -2  -9  -6   43.80    7.30
   2   9   6   30.90    7.40
   2   9   6   35.40    4.60
   2   9   6   31.00    6.00
   2   9   6   31.60    4.80
   2   9   6   29.40    3.80
  -3  -9  -6  791.92   29.20
  -3  -9  -6  848.52   29.80
   3   9   6  824.32   22.90
   3   9   6  821.32   22.70
   3   9   6  841.32   21.80
   3   9   6  985.90   51.39
   3   9   6  842.52   22.30
  -4  -9  -6    2.80    4.60
  -4  -9  -6    4.80    5.20
   4   9   6   -0.20    5.00
   4   9   6   -1.20    2.60
   4   9   6    8.80    4.20
   4   9   6    7.10    4.30
  -5  -9  -6   93.49   10.80
  -5  -9  -6   88.19   11.50
   5   9   6   92.19   12.20
   5   9   6   94.29    8.80
   5   9   6   82.39    7.70
  -6  -9  -6   15.00    6.50
  -6  -9  -6    9.90    5.80
   6   9   6   19.20    7.20
   6   9   6   -0.40    4.40
   6   9   6   12.00    5.80
  -7  -9  -6   70.89   10.90
  -7  -9  -6   96.89   13.50
   7   9   6  101.69   13.20
   7   9   6  102.89   11.60
  -6  10   6   49.00    9.10
  -6  10   6   46.80    8.80
  -5  10   6   60.19    8.70
  -5  10   6   73.89   11.50
  -4  10   6    1.20    3.90
  -4  10   6    2.70    4.00
   3 -10  -6   55.69    7.90
  -3  10   6   58.49    7.20
  -3  10   6   67.69    7.50
  -3  10   6   59.69    6.90
  -3  10   6   52.29    6.70
   2 -10  -6  211.08   11.10
  -2  10   6  199.08   10.30
  -2  10   6  200.08   17.10
  -2  10   6  195.88   11.80
  -2  10   6  223.98   12.40
   1 -10  -6  391.76   16.50
  -1  10   6  407.96   24.10
  -1  10   6  412.36   18.40
  -1  10   6  404.26   13.40
  -1  10   6  398.46   16.60
  -1  10   6  387.26   17.10
  -1  10   6  399.76   13.70
   0 -10  -6  107.39    9.80
   0  10   6  105.19    6.50
   0  10   6  101.49    7.20
   0  10   6   99.39    8.40
   0  10   6   96.19   12.50
   0  10   6   96.09    6.60
  -1 -10  -6    8.00    4.60
  -1 -10  -6   27.70    6.90
   1  10   6   22.70    7.30
   1  10   6   17.90    3.80
   1  10   6   17.40    3.50
   1  10   6   17.50    3.40
  -2 -10  -6   24.80    7.30
  -2 -10  -6   12.20    4.70
   2  10   6   23.00    3.80
   2  10   6   18.70    6.40
   2  10   6   24.60    4.00
   2  10   6   25.20    3.60
  -3 -10  -6   96.69   10.70
  -3 -10  -6   90.69   10.70
   3  10   6   91.69    7.00
   3  10   6   75.99    6.90
   3  10   6   81.09   11.00
   3  10   6   78.09    6.90
   3  10   6   89.79    7.20
  -4 -10  -6  112.09   12.10
  -4 -10  -6  123.09   12.10
   4  10   6  142.39   14.30
   4  10   6  117.09    8.30
   4  10   6  121.59    8.70
   4  10   6  119.89    9.10
   4  10   6  122.39    8.70
  -5 -10  -6  262.17   17.80
  -5 -10  -6  290.97   19.30
   5  10   6  286.27   19.60
   5  10   6  266.57   13.40
   5  10   6  291.37   14.20
  -6 -10  -6   12.00    6.90
  -6 -10  -6   19.10    6.10
   6  10   6   32.40    7.40
   6  10   6   17.00    6.50
  -7 -10  -6   24.30    6.80
   7  10   6    9.90    5.60
   7  10   6   14.00    6.80
  -5  11   6   -0.20    5.00
  -5  11   6    0.00    5.30
  -4  11   6  231.68   13.40
  -3  11   6    2.40    5.90
  -3  11   6   -2.10    3.20
  -3  11   6    4.80    4.00
   2 -11  -6   40.70    5.90
  -2  11   6   33.20    5.70
  -2  11   6   43.60   10.50
  -2  11   6   25.80    5.00
  -2  11   6   41.70    5.30
   1 -11  -6   16.60    5.10
  -1  11   6   28.60    4.00
  -1  11   6   22.00    4.00
  -1  11   6   23.20    7.60
  -1  11   6   16.10    4.60
   0  11   6  176.78    9.60
   0  11   6  192.38   17.20
   0  11   6  164.98    8.00
   0  11   6  180.58    8.40
  -1 -11  -6   12.00    5.00
  -1 -11  -6   19.40    7.30
   1  11   6   14.60    6.40
   1  11   6    6.50    2.90
   1  11   6   11.70    2.70
  -2 -11  -6  460.25   22.20
  -2 -11  -6  491.85   37.20
   2  11   6  458.15   14.20
   2  11   6  456.75   19.30
   2  11   6  457.15   25.10
   2  11   6  451.75   13.90
  -3 -11  -6   -3.00    5.20
  -3 -11  -6   -0.50    5.80
   3  11   6   -3.50    2.80
   3  11   6   -1.40    2.40
   3  11   6   -7.40    2.60
   3  11   6   -2.00    2.70
  -4 -11  -6   10.70    6.30
  -4 -11  -6    7.30    5.90
   4  11   6   11.00    5.20
   4  11   6   16.30    4.30
   4  11   6    8.70    3.50
   4  11   6   12.40    4.20
  -5 -11  -6   18.20    6.60
  -5 -11  -6   25.80    7.00
   5  11   6    7.80    4.40
   5  11   6   26.60    6.60
  -6 -11  -6  109.09   15.00
   6  11   6  109.79   13.50
  -4  12   6   -5.40    3.80
  -4  12   6   -0.30    6.00
  -4  12   6   -8.90    4.50
  -3  12   6   21.80    5.20
  -3  12   6    8.30    4.40
  -3  12   6    7.50    6.60
  -2  12   6  124.59   14.50
  -2  12   6  127.79    9.50
  -2  12   6  102.89    9.60
  -1  12   6  175.48   18.00
  -1  12   6  162.18    8.20
  -1  12   6  161.88   10.70
   0 -12  -6  185.88   13.10
   0  12   6  197.28    8.30
   0  12   6  210.88   11.40
   0  12   6  188.08   17.40
  -1 -12  -6   44.80    7.70
  -1 -12  -6   76.89   11.40
   1  12   6   42.20    8.50
   1  12   6   37.40    3.80
   1  12   6   49.50    6.20
  -2 -12  -6   -1.80    6.70
  -2 -12  -6    5.80    5.10
   2  12   6   -5.70    2.70
   2  12   6    6.60    4.20
   2  12   6   -2.90    2.40
  -3 -12  -6   31.20    8.00
  -3 -12  -6   39.10    8.00
   3  12   6   38.00    7.50
   3  12   6   36.90    5.70
   3  12   6   40.80    5.10
  -4 -12  -6  103.69   12.10
  -4 -12  -6   85.89   13.90
   4  12   6  120.09    8.10
   4  12   6   94.59   12.20
   4  12   6  114.89    9.40
  -2  13   6   15.50    5.10
  -2  13   6   17.10    7.30
  -1  13   6   10.10    6.30
  -1  13   6    5.20    4.40
   0 -13  -6   -3.60    5.00
   0  13   6    5.80    4.90
  -1 -13  -6  174.78   14.60
   1  13   6  175.48   15.80
   1  13   6  166.58   10.70
  -2 -13  -6   -4.90    6.30
   2  13   6    1.60    5.90
   2  13   6   -5.80    3.30
  -3 -13  -6   86.29   11.70
  -3 -13  -6   88.19   11.50
   3  13   6   70.49   10.00
   3  13   6   55.59    7.50
   2  10  -7   62.59   11.20
  -2 -10   7   70.79   13.10
   1  10  -7  112.59   16.70
   1  10  -7   99.59   11.90
   0  10  -7  152.08   16.60
   0  10  -7  163.88   14.70
  -1  10  -7   74.59   11.10
  -1  10  -7   48.10   11.10
  -2  10  -7   10.00    7.10
  -2  10  -7    3.70    7.00
  -3  10  -7   13.90    5.90
   4   9  -7    9.90    7.00
  -4  -9   7   -5.00    6.40
   3   9  -7  167.58   15.50
  -3  -9   7  128.19   17.10
   2   9  -7    3.20    6.00
   2   9  -7   11.30    8.00
  -2  -9   7    1.30    5.90
   1   9  -7   29.50    7.40
  -1  -9   7   23.10    4.90
   0   9  -7    5.40    5.30
   0   9  -7   -0.90    6.00
   0  -9   7   -3.50    3.30
  -1   9  -7   31.40    7.90
  -1   9  -7   21.10   10.00
   1  -9   7   17.10    4.70
  -2   9  -7    1.00    4.10
   2  -9   7   -0.10    3.30
   2  -9   7  -13.20    7.00
  -3   9  -7   80.59   13.10
  -3   9  -7  103.49   13.30
   3  -9   7   94.29    8.30
  -4   9  -7   16.00    7.40
  -4   9  -7    3.80    8.70
   4  -9   7    3.50    4.10
   5  -9   7    1.90    5.60
   5   8  -7    8.80    6.50
  -5  -8   7    3.80    5.40
  -5  -8   7   19.20    7.60
   4   8  -7   26.40    7.00
  -4  -8   7   26.00    5.90
  -4  -8   7   15.40    8.00
   3   8  -7    3.90    5.00
  -3  -8   7    6.20    6.70
  -3  -8   7   10.00    6.00
  -3  -8   7   10.90    4.70
   2   8  -7  214.28   16.10
   2   8  -7  194.68   18.10
  -2  -8   7  227.18   11.70
  -2  -8   7  217.08   18.60
  -2  -8   7  206.98   11.10
   1   8  -7   42.40    9.50
   1   8  -7   36.50    8.70
  -1  -8   7   41.00    5.70
  -1  -8   7   34.10    6.00
   0   8  -7  363.06   24.20
   0   8  -7  436.36   22.10
   0  -8   7  395.56   15.60
   0  -8   7  424.56   15.70
  -1   8  -7    9.00    6.50
  -1   8  -7   30.20    7.50
   1  -8   7   15.40    5.20
   1  -8   7   27.40    5.40
  -2   8  -7    8.70    6.70
  -2   8  -7   11.90    7.00
   2  -8   7    3.80    4.40
   2  -8   7   14.50    4.70
  -3   8  -7    8.10    8.30
  -3   8  -7   -6.80    2.90
  -3   8  -7    2.70    5.10
   3  -8   7   -3.20    3.80
   3  -8   7  -11.60    4.20
  -4   8  -7  281.87   22.30
  -4   8  -7  282.67   19.10
   4  -8   7  256.17   13.80
  -5   8  -7   19.80    7.60
  -5   8  -7   17.70    9.00
  -6   8  -7  102.39   13.70
   6  -8   7  103.19   10.60
  -6  -7   7   31.70    6.90
  -6  -7   7   18.10    7.80
   5   7  -7   -0.20    5.00
  -5  -7   7    0.60    5.60
   4   7  -7  348.67   20.20
  -4  -7   7  354.26   22.00
  -4  -7   7  367.46   17.10
   3   7  -7   32.20    7.40
  -3  -7   7   34.50    6.40
  -3  -7   7   26.60    7.70
  -3  -7   7   29.40    6.00
   2   7  -7   57.29    9.80
  -2  -7   7   46.50    6.80
  -2  -7   7   48.30    7.80
  -2  -7   7   51.79   10.30
   1   7  -7   28.80    8.50
  -1  -7   7   22.10    5.20
   0   7  -7  169.88   17.10
   0  -7   7  177.18   12.80
   0  -7   7  171.48   10.80
  -1   7  -7   35.10    9.30
   1  -7   7   51.69    6.90
  -2   7  -7  406.56   22.00
  -2   7  -7  452.85   24.80
  -2   7  -7  424.46   14.70
   2  -7   7  433.56   18.30
   2  -7   7  432.36   17.40
  -3   7  -7   49.10    9.10
  -3   7  -7   32.50    5.10
  -3   7  -7   39.30    9.20
   3  -7   7   40.70    6.60
   3  -7   7   39.40    6.90
  -4   7  -7   12.80    6.10
  -4   7  -7    4.80    4.30
  -4   7  -7    9.00    6.70
   4  -7   7    9.30    5.30
  -5   7  -7    5.30    6.70
  -5   7  -7    9.40    5.40
   5  -7   7   12.70    5.70
  -6   7  -7  113.59   15.40
  -6   7  -7  120.79   16.70
   6  -7   7  114.09   11.50
  -7   7  -7   -0.30    5.00
   7  -7   7   -0.20    4.50
   7   6  -7   66.49   11.20
  -7  -6   7   64.59    9.80
  -7  -6   7   59.09   11.00
  -6  -6   7   -0.30    5.60
  -6  -6   7   20.30    7.10
  -5  -6   7   35.30    7.70
  -5  -6   7   25.50    3.10
  -5  -6   7   41.80    9.50
  -5  -6   7   32.20    3.70
   4   6  -7    2.90    5.10
  -4  -6   7   10.80    6.20
  -4  -6   7    7.90    5.30
   3   6  -7   39.30    8.30
  -3  -6   7   16.40    8.20
  -3  -6   7   37.40    7.50
  -3  -6   7   37.20    6.80
  -2  -6   7    4.90    8.00
  -2  -6   7   10.80    4.50
  -2  -6   7   12.10    4.80
   1   6  -7  211.98   16.80
   1   6  -7  192.78   14.30
  -1  -6   7  189.58   12.10
  -1  -6   7  180.28   18.40
  -1  -6   7  198.18   12.20
   0   6  -7    0.50    6.00
   0   6  -7   -1.20    4.80
   0  -6   7    6.10    3.80
   0  -6   7   -3.70    4.30
  -1   6  -7   53.09    9.40
  -1   6  -7   42.60    4.60
  -1   6  -7   45.50    9.10
   1  -6   7   44.60    7.20
   1  -6   7   43.40    6.70
  -2   6  -7    6.40    6.30
  -2   6  -7    2.70    2.80
  -2   6  -7    7.30    4.90
   2  -6   7    7.70    4.70
  -3   6  -7   39.60    8.70
  -3   6  -7   42.80    6.20
  -3   6  -7   47.00    8.20
   3  -6   7   57.19   11.20
   3  -6   7   55.99    8.10
  -4   6  -7   -2.70    4.30
  -4   6  -7    7.40    5.20
  -4   6  -7    1.90    6.30
   4  -6   7    4.00    4.00
  -5   6  -7  270.17   19.90
  -5   6  -7  284.27   18.30
   5  -6   7  247.98   14.70
  -6   6  -7    9.50    7.20
  -6   6  -7   10.60    7.10
   6  -6   7    1.90    5.20
  -7   6  -7   33.00    9.10
  -7   6  -7   28.20    9.00
   7  -6   7   27.70    8.10
   7   5  -7   -7.80    6.60
  -7  -5   7   23.90    6.60
  -7  -5   7   12.40    6.90
   6   5  -7   53.29   10.30
  -6  -5   7   53.69    7.00
  -6  -5   7   71.99   10.60
  -6  -5   7   58.79   10.80
  -5  -5   7  225.68   10.90
  -5  -5   7  190.58   15.00
  -5  -5   7  208.78   16.20
   4   5  -7  240.78   16.00
  -4  -5   7  228.78   14.40
  -4  -5   7  224.98    8.90
  -4  -5   7  214.38    8.70
  -4  -5   7  242.08   16.60
   3   5  -7  283.67   19.80
  -3  -5   7  258.37    6.70
  -3  -5   7  247.38   16.40
  -3  -5   7  232.88   14.30
   2   5  -7    2.70    4.70
  -2  -5   7   -3.50    4.20
  -2  -5   7   -1.60    3.60
  -2  -5   7   -0.20    4.60
   1   5  -7   37.40    7.80
  -1  -5   7   32.40    6.70
  -1  -5   7   43.40    7.60
  -1  -5   7   33.70    7.50
   0   5  -7  157.28   15.30
   0   5  -7  159.88   13.20
   0  -5   7  165.98    6.70
   0  -5   7  171.18   11.80
   0  -5   7  140.39   10.40
  -1   5  -7  701.33   28.80
  -1   5  -7  701.73   20.10
  -1   5  -7  773.22   27.80
   1  -5   7  758.62   24.60
   1  -5   7  725.23   24.70
   1  -5   7  750.32   19.80
  -2   5  -7  159.08    9.20
  -2   5  -7  160.08   14.70
  -2   5  -7  151.58   12.80
   2  -5   7  162.28   11.70
   2  -5   7  146.69   10.70
   2  -5   7  160.98   10.10
  -3   5  -7  144.79   12.80
  -3   5  -7  135.09    9.90
   3  -5   7  148.99   10.80
   3  -5   7  148.89   11.10
  -4   5  -7   23.80    8.00
  -4   5  -7    0.90    5.10
  -4   5  -7   -6.70    3.50
   4  -5   7    4.00    5.30
   4  -5   7    5.40    4.70
  -5   5  -7   82.99   11.60
  -5   5  -7   89.79   11.90
   5  -5   7   72.49   10.20
   5  -5   7   61.89    9.20
  -6   5  -7   90.69   12.20
  -6   5  -7   98.09   11.90
   6  -5   7   80.39   11.00
   6  -5   7   98.19   11.60
  -7   5  -7  136.49   15.30
  -7   5  -7  226.28   19.90
   7  -5   7  153.58   13.30
  -8   5  -7   33.70    8.90
  -8   5  -7   54.69   10.90
  -8  -4   7  173.38   16.10
   7   4  -7   40.80   14.00
  -7  -4   7   59.99    9.00
  -7  -4   7   51.19    9.90
   6   4  -7  245.48   17.40
  -6  -4   7  232.88   16.10
  -6  -4   7  259.47   14.00
  -6  -4   7  242.58   16.70
  -5  -4   7    1.30    5.90
  -5  -4   7   -0.80    3.20
   4   4  -7   85.29   10.40
  -4  -4   7   72.59    6.60
  -4  -4   7   64.69    6.40
  -4  -4   7   86.59    9.90
  -4  -4   7   77.59   10.70
   3   4  -7  247.08   15.40
  -3  -4   7  236.98   15.40
  -3  -4   7  230.28    9.60
  -3  -4   7  258.67   15.50
   2   4  -7  698.73   25.70
   2   4  -7  748.03   27.40
  -2  -4   7  726.43   17.80
  -2  -4   7  732.03   25.60
  -2  -4   7  703.03   26.50
  -2  -4   7  716.33   24.40
   1   4  -7  153.18   12.60
   1   4  -7  147.49   11.50
  -1  -4   7  147.09    6.70
  -1  -4   7  152.18   11.30
  -1  -4   7  146.99   12.00
  -1  -4   7  153.88   11.30
   0   4  -7  353.86   18.90
   0   4  -7  360.06   17.80
   0   4  -7  391.46   18.20
   0  -4   7  361.76   16.50
   0  -4   7  358.96   11.90
   0  -4   7  336.07   16.50
  -1   4  -7   28.10    5.50
  -1   4  -7   18.70    6.10
  -1   4  -7   26.40    6.50
  -1   4  -7   15.60    4.00
   1  -4   7   21.90    5.10
   1  -4   7   25.60    4.00
   1  -4   7   18.80    5.20
  -2   4  -7  144.59   13.00
  -2   4  -7  168.18    9.80
  -2   4  -7  162.68   13.10
   2  -4   7  178.58   10.50
   2  -4   7  174.08   11.60
   2  -4   7  162.38   11.80
  -3   4  -7  236.98   16.10
  -3   4  -7  223.68   12.80
  -3   4  -7  247.38   15.80
   3  -4   7  212.88   12.60
   3  -4   7  218.98   13.70
  -4   4  -7  599.14   25.80
  -4   4  -7  506.25   20.80
   4  -4   7  584.94   22.50
   4  -4   7  564.94   22.50
  -5   4  -7  210.58   16.20
  -5   4  -7  209.68   15.70
   5  -4   7  211.18   15.50
   5  -4   7  213.08   14.20
  -6   4  -7   96.69   12.00
  -6   4  -7   69.59   10.10
   6  -4   7   66.39    9.80
   6  -4   7   84.49   10.40
  -7   4  -7    7.10    6.40
  -7   4  -7    7.80    5.90
   7  -4   7   10.90    5.80
   7  -4   7   10.00    5.00
  -8   4  -7   57.09   11.10
   8  -4   7   64.49   11.70
   8  -4   7   53.19   10.20
   8   3  -7   -0.50    5.10
  -8  -3   7    2.40    6.00
  -8  -3   7   12.80    6.20
   7   3  -7    0.60    5.80
  -7  -3   7    0.90    4.90
  -7  -3   7    4.80    6.50
   6   3  -7   77.09   11.60
  -6  -3   7   82.39    9.90
  -6  -3   7   71.39   10.40
  -6  -3   7   68.49    8.40
   5   3  -7   49.90    8.50
  -5  -3   7   57.39    7.90
  -5  -3   7   48.00    6.50
  -5  -3   7   63.99    9.20
   4   3  -7  250.67   15.90
   4   3  -7  214.28   16.70
  -4  -3   7  233.18   14.70
  -4  -3   7  212.58   14.70
  -4  -3   7  223.48   11.20
   3   3  -7  236.08   14.70
   3   3  -7  232.98   14.10
  -3  -3   7  236.88   11.40
  -3  -3   7  251.77   14.00
  -3  -3   7  239.68   15.60
   2   3  -7    3.20    3.80
   2   3  -7   -0.40    4.20
  -2  -3   7    2.30    2.70
  -2  -3   7   -1.20    3.90
  -2  -3   7    5.20    4.10
  -2  -3   7    0.20    4.30
   1   3  -7    3.10    4.60
   1   3  -7   -3.50    3.10
  -1  -3   7    1.80    4.30
  -1  -3   7    4.50    2.70
  -1  -3   7    0.50    3.60
  -1  -3   7   -2.60    3.40
   0   3  -7  402.46   17.00
   0   3  -7  380.76   20.70
   0   3  -7  426.56   19.40
   0   3  -7  403.26   19.00
   0  -3   7  412.66   18.10
   0  -3   7  365.26   16.80
   0  -3   7  389.06   13.60
  -1   3  -7  286.57   17.40
  -1   3  -7  283.17   16.80
  -1   3  -7  295.87   13.00
  -1   3  -7  336.67   17.20
   1  -3   7  319.87   15.40
   1  -3   7  311.47   12.90
   1  -3   7  294.17   14.40
  -2   3  -7  576.74   23.50
  -2   3  -7  599.84   23.30
  -2   3  -7  550.54   22.80
  -2   3  -7  598.44   19.80
   2  -3   7  597.74   22.30
   2  -3   7  599.14   22.00
  -3   3  -7  197.88   13.90
  -3   3  -7  214.28   14.20
  -3   3  -7  188.48   11.60
   3  -3   7  201.88   12.70
   3  -3   7  220.98   13.40
  -4   3  -7   10.60    4.70
  -4   3  -7    9.60    4.80
  -4   3  -7   11.90    5.90
   4  -3   7    3.20    4.20
   4  -3   7   -1.20    3.90
  -5   3  -7   44.00    8.10
  -5   3  -7   32.20    8.00
   5  -3   7   24.40    7.30
   5  -3   7   11.50    6.10
  -6   3  -7  207.68   15.30
  -6   3  -7  227.58   16.30
   6  -3   7  221.58   16.90
   6  -3   7  218.58   15.00
  -7   3  -7  141.59   14.20
  -7   3  -7  146.09   13.50
   7  -3   7  121.19   14.80
   7  -3   7  152.08   13.20
  -8   3  -7   79.09   11.80
  -8   3  -7   96.39   13.00
  -8   3  -7   74.29   10.30
   8  -3   7   86.69   12.30
   8  -3   7   79.59   11.10
  -9   3  -7    2.90    7.60
  -9   3  -7    5.30    5.80
   9  -3   7    7.40    5.80
   9  -3   7    8.20    7.50
   8   2  -7  -12.00    5.20
  -8  -2   7    6.70    6.80
  -8  -2   7   -0.50    5.70
   7   2  -7  246.58   18.00
  -7  -2   7  254.37   17.00
  -7  -2   7  253.17   16.10
   6   2  -7   -2.80    4.70
  -6  -2   7   -0.50    5.00
  -6  -2   7    9.40    4.30
   5   2  -7   19.50    6.80
   5   2  -7   21.10    6.50
  -5  -2   7   21.70    5.20
  -5  -2   7   25.70    6.50
  -5  -2   7   19.80    5.20
   4   2  -7   42.10    7.10
   4   2  -7   72.29    8.20
   4   2  -7   69.89    9.70
  -4  -2   7   66.99   10.30
  -4  -2   7   60.59    7.30
   3   2  -7 1370.36   38.30
   3   2  -7 1242.98   34.20
   3   2  -7 1293.17   34.60
  -3  -2   7 1320.57   38.20
  -3  -2   7 1342.97   35.00
  -3  -2   7 1325.67   33.30
   2   2  -7   10.90    4.00
   2   2  -7    6.10    5.00
  -2  -2   7   12.00    4.50
  -2  -2   7   14.10    4.80
  -2  -2   7    5.20    4.80
  -2  -2   7    5.50    3.30
   1   2  -7 1164.98   34.70
   1   2  -7 1109.59   32.90
   1   2  -7 1224.08   31.20
  -1  -2   7 1160.58   29.00
  -1  -2   7 1190.98   33.50
  -1  -2   7 1235.38   32.60
  -1  -2   7 1117.19   32.70
   0   2  -7   54.99    6.90
   0   2  -7   64.29    8.00
   0   2  -7   56.89    8.60
   0   2  -7   42.50    6.70
   0  -2   7   60.29    8.00
   0  -2   7   54.69    7.10
   0  -2   7   49.00    6.00
  -1   2  -7  124.99    9.20
  -1   2  -7  127.59   11.10
  -1   2  -7  131.49   10.00
  -1   2  -7  138.99    9.60
  -1   2  -7  148.89   11.50
   1  -2   7  142.09   10.50
   1  -2   7  142.89    9.50
   1  -2   7  130.59   10.00
  -2   2  -7    7.90    4.00
  -2   2  -7    6.70    5.10
  -2   2  -7   12.40    4.10
  -2   2  -7    5.80    4.40
  -2   2  -7   12.30    4.30
   2  -2   7    5.50    5.10
   2  -2   7   12.80    5.00
   2  -2   7   15.40    4.30
  -3   2  -7 1419.96   42.70
  -3   2  -7 1439.26   38.90
  -3   2  -7 1456.15   40.10
   3  -2   7 1423.36   38.10
   3  -2   7 1396.86   42.40
   3  -2   7 1448.66   39.00
   3  -2   7 1477.35   38.30
  -4   2  -7   61.49    8.00
  -4   2  -7   63.29    9.20
  -4   2  -7   59.39    8.10
   4  -2   7   66.69    9.00
   4  -2   7   70.79    8.60
   4  -2   7   53.69    7.10
  -5   2  -7  601.44   24.90
  -5   2  -7  574.24   23.90
   5  -2   7  569.04   24.40
  -6   2  -7   -0.70    4.70
   6  -2   7    4.80    4.50
   6  -2   7   -0.20    4.90
  -7   2  -7   44.00    8.70
  -7   2  -7   51.69    8.70
   7  -2   7   40.10    8.40
   7  -2   7   65.09    9.90
  -8   2  -7    4.20    5.30
  -8   2  -7   16.20    6.90
  -8   2  -7   23.00    6.60
   8  -2   7   11.10    6.00
   8  -2   7    3.60    7.10
  -9   2  -7  234.38   23.20
  -9   2  -7  232.88   16.10
  -9   2  -7  215.98   17.20
   9  -2   7  206.38   18.60
   9  -2   7  237.58   17.90
   8   1  -7  -13.30    5.10
  -8  -1   7    7.70    6.30
  -8  -1   7    4.60    5.20
   7   1  -7  254.17   17.90
   7   1  -7  255.57   13.10
  -7  -1   7  245.38   19.10
  -7  -1   7  270.77   17.70
   6   1  -7  146.39    9.90
   6   1  -7  150.68   13.30
  -6  -1   7  149.09   12.10
  -6  -1   7  157.18   14.30
   5   1  -7  443.96   20.80
   5   1  -7  368.46   15.00
  -5  -1   7  397.26   20.40
  -5  -1   7  377.16   17.10
   4   1  -7  166.48   12.60
  -4  -1   7  159.98   13.10
  -4  -1   7  157.98   10.40
   3   1  -7    3.30    3.80
   3   1  -7   -2.20    3.10
  -3  -1   7    7.00    4.40
  -3  -1   7   -0.20    2.70
   2   1  -7   41.00    6.90
   2   1  -7   34.40    5.00
   2   1  -7   39.20    6.60
  -2  -1   7   33.30    6.90
  -2  -1   7   26.30    5.00
  -2  -1   7   38.50    5.40
  -2  -1   7   54.49    8.20
   1   1  -7  763.62   25.20
   1   1  -7  757.22   26.10
   1   1  -7  760.72   21.30
  -1  -1   7  794.62   23.20
  -1  -1   7  794.42   25.80
  -1  -1   7  743.03   24.90
   0   1  -7  716.33   20.80
   0   1  -7  702.33   23.90
   0   1  -7  745.73   24.80
   0   1  -7  724.73   26.90
   0  -1   7  758.12   24.90
   0  -1   7  677.93   21.70
   0  -1   7  738.83   24.00
  -1   1  -7  441.36   15.90
  -1   1  -7  422.66   16.90
  -1   1  -7  423.76   18.40
  -1   1  -7  441.36   18.10
   1  -1   7  393.46   16.40
   1  -1   7  401.96   17.50
   1  -1   7  397.76   17.50
  -2   1  -7  101.99    8.80
  -2   1  -7   93.09    8.40
  -2   1  -7  104.69    9.90
  -2   1  -7   98.19    9.10
   2  -1   7   94.19    8.40
   2  -1   7   98.99    9.50
   2  -1   7   98.39    9.40
  -3   1  -7    3.70    3.60
  -3   1  -7   -3.20    4.40
  -3   1  -7   -0.40    3.10
   3  -1   7    0.00    3.60
   3  -1   7    1.60    3.50
   3  -1   7    3.40    3.70
   3  -1   7   -3.50    3.80
  -4   1  -7   68.89    8.80
  -4   1  -7   61.59    8.20
  -4   1  -7   74.69    9.10
   4  -1   7   75.69    8.80
   4  -1   7   84.69    9.10
   4  -1   7   70.29    8.80
  -5   1  -7  600.24   23.50
  -5   1  -7  551.94   23.90
   5  -1   7  581.74   23.50
   5  -1   7  597.14   25.30
  -6   1  -7  136.59   12.00
  -6   1  -7  153.88   12.80
   6  -1   7  155.18   13.30
   6  -1   7  154.88   15.50
  -7   1  -7  161.18   13.30
  -7   1  -7  130.79   13.00
  -7   1  -7  152.18   15.10
   7  -1   7  132.49   12.80
   7  -1   7  143.49   14.50
  -8   1  -7   72.19   10.60
  -8   1  -7   72.99   10.00
  -8   1  -7   71.79   10.50
   8  -1   7   69.59   11.90
   8  -1   7   74.59   11.10
  -9   1  -7   33.50    7.70
  -9   1  -7   29.20    7.80
  -9   1  -7   33.20    9.80
   9  -1   7   22.60    8.60
   9  -1   7   31.90    9.80
  -9   0   7   12.40    6.40
   8   0  -7  143.99   14.80
  -8   0   7  141.09   11.60
  -8   0   7  133.29   14.10
   7   0  -7    1.00    5.50
   7   0  -7   -5.20    3.40
  -7   0   7    0.70    4.30
  -7   0   7    7.70    5.70
   6   0  -7  312.87   18.00
   6   0  -7  280.97   12.00
  -6   0   7  320.97   18.80
  -6   0   7  310.67   15.70
   5   0  -7   -3.50    2.70
  -5   0   7    4.00    3.60
  -5   0   7    0.00    4.60
   4   0  -7  151.98   14.70
   4   0  -7  152.58    9.00
   4   0  -7  152.48   11.90
  -4   0   7  155.38   11.80
  -4   0   7  154.28   11.50
   3   0  -7   -6.90    2.90
   3   0  -7   12.90    4.70
  -3   0   7    0.60    2.70
  -3   0   7   -0.40    3.60
   2   0  -7  672.43   18.30
   2   0  -7  641.04   22.80
   2   0  -7  725.43   24.60
  -2   0   7  645.34   23.10
  -2   0   7  684.13   24.00
  -2   0   7  713.03   23.20
  -2   0   7  680.13   18.50
   1   0  -7    5.20    5.40
   1   0  -7   10.80    3.90
   1   0  -7    0.10    2.20
  -1   0   7    1.10    4.00
  -1   0   7   -2.90    3.20
  -1   0   7    4.80    4.00
   0   0  -7  410.66   17.30
   0   0   7  388.46   19.70
   0   0   7  393.46   16.60
   0   0   7  383.96   16.70
  -1   0  -7    1.10    2.60
  -1   0  -7   -6.10    3.60
  -1   0  -7    3.50    4.20
  -1   0  -7   -0.80    2.80
   1   0   7   -5.90    3.40
   1   0   7    3.10    3.10
   1   0   7    5.00    3.60
  -2   0  -7  523.25   17.90
  -2   0  -7  517.95   19.70
  -2   0  -7  522.45   19.70
  -2   0  -7  540.65   20.10
   2   0   7  563.14   20.80
   2   0   7  525.95   19.30
   2   0   7  531.35   20.40
  -3   0  -7    2.10    4.30
  -3   0  -7    7.30    4.00
  -3   0  -7   12.60    4.20
  -3   0  -7    2.50    3.40
   3   0   7    0.60    4.30
   3   0   7    6.50    4.30
   3   0   7   -1.10    3.90
   3   0   7    4.40    3.40
  -4   0  -7  507.25   21.70
  -4   0  -7  518.55   20.60
  -4   0  -7  542.85   19.90
   4   0   7  532.25   20.90
   4   0   7  524.15   22.10
   4   0   7  538.95   18.90
  -5   0  -7   14.60    5.40
  -5   0  -7   18.50    5.50
   5   0   7    7.90    4.70
   5   0   7   15.50    6.80
   5   0   7    5.30    4.20
  -6   0  -7    0.00    4.70
  -6   0  -7    3.10    3.90
  -6   0  -7   -1.50    4.30
   6   0   7   11.30    6.60
   6   0   7    5.40    4.90
  -7   0  -7    8.40    4.50
  -7   0  -7    4.90    5.60
  -7   0  -7   12.20    9.80
   7   0   7    3.80    5.80
   7   0   7   -7.70    5.70
  -8   0  -7  206.58   15.60
  -8   0  -7  208.48   16.40
  -8   0  -7  200.58   15.10
   8   0   7  216.18   17.20
   8   0   7  206.18   18.30
  -9   0  -7   12.90    5.90
  -9   0  -7    4.80    4.70
  -9   0  -7  -10.10    4.50
   9   0   7    1.40    6.00
   9   0   7    8.30    6.60
  -9   1   7    6.80    5.70
  -8   1   7   23.80    7.30
  -8   1   7   13.30    5.60
   7  -1  -7  294.87   11.40
   7  -1  -7  281.77   19.40
  -7   1   7  297.17   19.50
  -7   1   7  310.47   16.30
   6  -1  -7  212.58    9.40
   6  -1  -7  228.78   16.10
  -6   1   7  226.58   12.70
  -6   1   7  219.68   15.60
   5  -1  -7  173.28    8.50
  -5   1   7  192.88   14.00
  -5   1   7  190.78   10.80
   4  -1  -7  117.09    7.40
   4  -1  -7  129.09   11.20
   4  -1  -7  127.59   10.30
  -4   1   7  110.79   10.40
  -4   1   7  120.29    7.90
   3  -1  -7   25.60    5.80
   3  -1  -7   25.50    5.30
   3  -1  -7   21.20    5.40
  -3   1   7   22.70    3.50
  -3   1   7   19.00    5.50
   2  -1  -7  127.69    9.80
   2  -1  -7  121.39   10.20
  -2   1   7  122.19   10.00
  -2   1   7  133.09    9.90
  -2   1   7  104.59    5.50
  -2   1   7  134.19   10.70
   1  -1  -7 1172.08   24.10
   1  -1  -7 1211.98   33.40
   1  -1  -7 1196.98   32.70
  -1   1   7 1166.38   33.10
  -1   1   7 1200.18   33.70
   0  -1  -7  510.65   19.00
   0  -1  -7  546.35   20.20
   0  -1  -7  575.54   14.30
   0   1   7  586.74   20.80
   0   1   7  587.24   21.10
  -1  -1  -7  821.82   26.30
  -1  -1  -7  781.32   24.90
  -1  -1  -7  774.42   21.00
  -1  -1  -7  810.62   25.00
   1   1   7  814.72   26.20
   1   1   7  812.52   25.60
  -2  -1  -7   -3.80    3.10
  -2  -1  -7    3.40    3.10
  -2  -1  -7   -0.40    3.40
  -2  -1  -7    8.20    3.90
   2   1   7    6.00    4.20
   2   1   7   -2.70    2.80
   2   1   7    1.30    3.80
  -3  -1  -7    8.00    4.20
  -3  -1  -7   16.30    3.80
  -3  -1  -7   13.00    4.30
  -3  -1  -7    9.90    4.30
   3   1   7   16.00    5.20
   3   1   7   11.50    3.30
   3   1   7    9.60    4.70
   3   1   7   12.20    4.20
  -4  -1  -7  127.19   10.40
  -4  -1  -7  155.38   11.70
  -4  -1  -7  138.09   10.90
   4   1   7  156.48   12.60
   4   1   7  142.19   10.90
   4   1   7  129.49    8.80
  -5  -1  -7 1230.78   35.00
  -5  -1  -7 1203.18   33.10
  -5  -1  -7 1243.58   36.10
   5   1   7 1163.78   35.30
   5   1   7 1210.58   38.80
  -6  -1  -7  164.58   13.30
  -6  -1  -7  171.98   13.40
  -6  -1  -7  174.68   12.90
   6   1   7  173.08   13.90
   6   1   7  169.88   14.10
   6   1   7  170.48   14.50
  -7  -1  -7  166.98   14.00
  -7  -1  -7  138.99   12.30
  -7  -1  -7  161.78   13.40
   7   1   7  151.18   14.90
   7   1   7  145.39   14.00
  -8  -1  -7   -5.70    4.40
  -8  -1  -7    8.40    5.70
  -8  -1  -7   -5.40    5.20
   8   1   7    2.10    5.00
   8   1   7    8.20    6.50
  -9  -1  -7   49.60    8.90
  -9  -1  -7   48.40   10.20
  -9  -1  -7   48.70    9.40
   9   1   7   34.20    9.50
   9   1   7   42.20    9.50
   9  -2  -7  258.87   19.50
  -9   2   7  225.68   16.50
   8  -2  -7    8.10    7.30
  -8   2   7    4.20    5.40
  -8   2   7   10.30    6.00
   7  -2  -7   29.50    3.30
   7  -2  -7   30.60    7.50
  -7   2   7   34.30    6.80
  -7   2   7   45.10    8.70
   6  -2  -7   55.89    9.20
  -6   2   7   31.60    8.20
  -6   2   7   35.40    6.00
   5  -2  -7  519.95   14.20
  -5   2   7  530.45   27.20
  -5   2   7  525.15   26.20
   4  -2  -7   -1.30    2.20
   4  -2  -7    1.40    4.40
   4  -2  -7   -0.20    3.10
  -4   2   7   -1.00    4.20
  -4   2   7   -0.70    2.20
   3  -2  -7 1446.96   38.20
   3  -2  -7 1414.76   35.70
   3  -2  -7 1394.46   36.90
  -3   2   7 1429.76   38.10
  -3   2   7 1449.35   29.50
   2  -2  -7  241.48   13.70
   2  -2  -7  229.38   10.90
   2  -2  -7  239.18   13.10
  -2   2   7  230.88   13.50
  -2   2   7  226.88   12.90
  -2   2   7  235.48   13.80
   1  -2  -7   84.09    6.00
   1  -2  -7   83.59    7.50
   1  -2  -7   77.19    9.10
  -1   2   7   90.69   10.60
  -1   2   7   81.99    8.60
   0  -2  -7   15.00    1.60
   0  -2  -7    9.10    5.30
   0  -2  -7   10.30    4.00
   0   2   7   25.10    5.30
   0   2   7   13.20    4.70
   0   2   7   19.90    5.80
  -1  -2  -7 1297.37   34.10
  -1  -2  -7 1380.76   34.40
  -1  -2  -7 1333.77   37.40
  -1  -2  -7 1387.16   28.50
   1   2   7 1391.76   37.60
   1   2   7 1345.57   35.30
   1   2   7 1317.17   34.70
  -2  -2  -7   16.30    4.50
  -2  -2  -7    9.90    4.40
  -2  -2  -7    8.50    2.40
  -2  -2  -7    8.00    4.00
   2   2   7   11.70    5.40
   2   2   7    9.50    4.40
   2   2   7   12.10    4.60
  -3  -2  -7 1339.37   35.40
  -3  -2  -7 1324.27   37.90
  -3  -2  -7 1360.86   34.40
  -3  -2  -7 1317.17   30.00
   3   2   7 1380.36   36.20
   3   2   7 1275.67   34.60
   3   2   7 1342.17   38.60
   3   2   7 1324.77   30.10
  -4  -2  -7  125.49   10.30
  -4  -2  -7  102.79    7.80
  -4  -2  -7   73.89    9.00
  -4  -2  -7   95.19    8.40
   4   2   7   93.49    7.10
   4   2   7   90.59    9.10
   4   2   7  103.69   11.10
  -5  -2  -7   29.10    5.40
  -5  -2  -7   33.00    6.90
  -5  -2  -7   33.40    6.90
   5   2   7   26.10    4.80
   5   2   7   23.50    6.60
   5   2   7   33.80    7.00
  -6  -2  -7  135.59   11.40
  -6  -2  -7  119.09   11.70
  -6  -2  -7  134.09   10.50
   6   2   7  133.69   12.60
   6   2   7  122.99    9.90
   6   2   7  121.79   13.30
  -7  -2  -7  325.87   18.10
  -7  -2  -7  307.97   17.40
  -7  -2  -7  302.87   17.40
   7   2   7  310.57   20.80
   7   2   7  301.77   18.00
  -8  -2  -7    5.70    6.10
  -8  -2  -7    3.40    4.80
  -8  -2  -7   -6.30    5.20
   8   2   7   10.70    6.50
   8   2   7   -3.40    4.70
  -9  -2  -7  180.38   15.70
  -9  -2  -7  203.08   16.30
  -9  -2  -7  181.28   14.90
   9   2   7  205.98   18.70
   9   2   7  206.68   17.10
   8  -3  -7   22.40    7.40
  -8   3   7   23.30    7.70
  -8   3   7   26.50    8.00
   7  -3  -7   67.69   10.80
  -7   3   7   78.39   11.70
  -7   3   7   65.09    8.20
  -6   3   7  384.86   16.20
  -6   3   7  373.36   20.20
   5  -3  -7  107.49   11.20
   5  -3  -7   99.09    4.30
  -5   3   7   90.09   12.40
  -5   3   7  100.69    7.50
   4  -3  -7   66.79    8.20
   4  -3  -7   85.59    8.10
   4  -3  -7   79.09    4.90
   4  -3  -7   76.29    8.40
  -4   3   7   74.09    5.80
  -4   3   7   60.39    8.30
   3  -3  -7   -1.30    2.80
   3  -3  -7    6.30    4.40
   3  -3  -7    1.30    3.20
  -3   3   7   -0.10    1.40
  -3   3   7   -2.30    3.90
  -3   3   7   -1.40    3.40
   2  -3  -7  396.16   15.60
   2  -3  -7  418.36   17.10
   2  -3  -7  390.96   13.80
  -2   3   7  412.56   17.00
  -2   3   7  419.06   18.60
  -2   3   7  368.56   16.70
   1  -3  -7  451.45   17.20
   1  -3  -7  454.55   16.60
   1  -3  -7  445.86   12.90
  -1   3   7  455.65   20.90
  -1   3   7  451.45   20.00
  -1   3   7  435.16   17.30
   0  -3  -7  648.84   20.20
   0  -3  -7  672.93   21.70
   0  -3  -7  694.33   15.60
   0  -3  -7  665.23   15.00
   0   3   7  705.13   22.70
   0   3   7  649.04   22.00
   0   3   7  705.03   25.10
  -1  -3  -7   34.40    5.80
  -1  -3  -7   34.80    5.20
  -1  -3  -7   27.10    6.00
  -1  -3  -7   36.70    3.70
   1   3   7   39.40    6.30
   1   3   7   26.80    6.10
   1   3   7   34.30    5.50
  -2  -3  -7   71.29    6.60
  -2  -3  -7   74.19    9.20
  -2  -3  -7   78.69    7.30
  -2  -3  -7   96.09    8.50
  -2  -3  -7   77.09    4.10
   2   3   7   92.09   11.00
   2   3   7   63.79    7.70
  -3  -3  -7    0.50    3.30
  -3  -3  -7    6.70    4.00
  -3  -3  -7    8.90    4.40
  -3  -3  -7    5.70    3.70
  -3  -3  -7    4.90    2.30
   3   3   7    5.80    3.10
   3   3   7    7.80    5.20
   3   3   7    1.00    1.90
   3   3   7    7.10    4.30
  -4  -3  -7  243.08   14.10
  -4  -3  -7  260.37   11.00
  -4  -3  -7  281.77   13.80
   4   3   7  261.77   14.10
   4   3   7  258.07   10.80
   4   3   7  258.87   16.30
  -5  -3  -7  246.58   13.70
  -5  -3  -7  252.47   12.50
  -5  -3  -7  228.68   14.50
  -5  -3  -7  260.07   13.90
   5   3   7  274.57   17.50
   5   3   7  238.38   11.50
   5   3   7  249.28   14.40
  -6  -3  -7  162.38   13.40
  -6  -3  -7  162.18   11.80
  -6  -3  -7  162.98   11.10
   6   3   7  167.28   11.00
   6   3   7  174.28   12.90
   6   3   7  177.48   15.20
  -7  -3  -7   13.00    6.20
  -7  -3  -7   18.40    5.40
  -7  -3  -7    0.10    5.50
   7   3   7    9.60    6.10
   7   3   7   16.00    7.20
  -8  -3  -7   -8.30    4.70
  -8  -3  -7   -1.30    4.20
  -8  -3  -7    3.00    4.60
   8   3   7   -4.00    5.20
   8   3   7   -3.20    5.50
  -9  -3  -7   -4.50    4.30
  -9  -3  -7   11.40    5.80
  -9  -3  -7   -4.60    6.10
   9   3   7   -6.30    5.20
   9   3   7    0.50    5.90
   8  -4  -7   81.29   11.30
  -8   4   7   83.29   12.20
  -7   4   7    2.20    4.20
  -7   4   7    7.80    5.50
   6  -4  -7   48.70    8.80
  -6   4   7   35.50    7.00
  -6   4   7   31.00    5.30
   5  -4  -7   63.29    8.80
  -5   4   7   64.19    6.50
   4  -4  -7  742.73   23.70
   4  -4  -7  732.73   28.50
   4  -4  -7  751.12   25.40
   4  -4  -7  737.13   15.70
   4  -4  -7  728.13   15.80
  -4   4   7  767.62   26.00
  -4   4   7  761.22   19.00
   3  -4  -7   61.59    4.60
   3  -4  -7   58.99    8.10
   3  -4  -7   61.39    7.00
   3  -4  -7   60.89    6.70
  -3   4   7   57.19    3.50
  -3   4   7   52.99    8.60
  -3   4   7   67.39    8.40
   2  -4  -7  262.07   12.60
   2  -4  -7  244.88   11.10
   2  -4  -7  246.58    9.80
   2  -4  -7  248.08   10.30
  -2   4   7  216.38   12.70
  -2   4   7  269.27   13.20
  -2   4   7  258.37   15.00
   1  -4  -7   10.20    3.00
   1  -4  -7    8.70    3.70
   1  -4  -7   12.50    2.50
  -1   4   7   17.30    5.10
  -1   4   7   21.20    5.30
  -1   4   7    5.30    3.90
   0  -4  -7  241.78   10.90
   0  -4  -7  238.08   11.10
   0  -4  -7  249.97   11.50
   0   4   7  238.48   15.20
   0   4   7  230.98   12.70
   0   4   7  230.58   12.30
  -1  -4  -7  136.69    8.40
  -1  -4  -7  134.09    6.20
  -1  -4  -7  153.28    9.70
  -1  -4  -7  136.89    8.30
  -1  -4  -7  145.79   12.20
   1   4   7  123.19   11.40
   1   4   7  131.49   10.00
   1   4   7  144.59    9.20
  -2  -4  -7 1930.31   45.10
  -2  -4  -7 1934.31   40.40
  -2  -4  -7 1822.72   49.70
  -2  -4  -7 1966.40   42.00
  -2  -4  -7 1891.71   42.20
   2   4   7 1854.01   49.70
   2   4   7 1864.21   44.90
   2   4   7 1859.71   43.80
  -3  -4  -7   31.00    4.80
  -3  -4  -7   31.90    5.60
  -3  -4  -7   21.40    5.20
  -3  -4  -7   31.10    5.40
   3   4   7   37.60    6.40
   3   4   7   32.30    7.00
   3   4   7   32.90    5.80
   3   4   7   23.90    2.80
  -4  -4  -7   29.70    6.70
  -4  -4  -7   41.40    5.30
  -4  -4  -7   38.60    6.00
  -4  -4  -7   36.20    6.00
  -4  -4  -7   38.20    6.50
   4   4   7   47.20    7.30
   4   4   7   43.20    4.70
   4   4   7   44.00    8.10
  -5  -4  -7  153.28    9.70
  -5  -4  -7  125.59   11.40
  -5  -4  -7  146.79   10.50
  -5  -4  -7  135.99   10.00
   5   4   7  142.19   11.70
   5   4   7  127.29    8.80
  -6  -4  -7  212.68   14.70
  -6  -4  -7  221.28   13.20
  -6  -4  -7  217.38   15.30
  -6  -4  -7  209.48   13.10
   6   4   7  187.38   17.90
   6   4   7  204.18   16.60
   6   4   7  217.48   15.50
  -7  -4  -7   95.39   12.60
  -7  -4  -7  108.79   11.90
   7   4   7  126.19   12.70
   7   4   7  117.99   13.80
  -8  -4  -7  475.15   25.80
  -8  -4  -7  449.76   23.00
   8   4   7  385.66   24.20
   8   4   7  458.95   23.60
  -9  -4  -7   -3.90    5.10
  -9  -4  -7    2.00    4.20
  -9  -4  -7    1.70    7.20
   9   4   7   -2.60    5.50
   9   4   7    7.00    6.70
  -8   5   7   85.79   12.00
  -8   5   7   93.69   12.80
   7  -5  -7  289.87   16.90
  -7   5   7  269.77   18.20
  -6   5   7   98.49   12.10
   5  -5  -7   78.49    9.30
   5  -5  -7   71.69    9.70
   4  -5  -7   20.80    5.40
   4  -5  -7   19.40    5.80
  -4   5   7   23.90    6.30
   3  -5  -7  183.28   11.00
   3  -5  -7  181.48    7.00
   3  -5  -7  172.18    9.90
   3  -5  -7  166.88    9.40
  -3   5   7  180.78    6.90
  -3   5   7  177.78   11.80
  -3   5   7  176.98   14.50
   2  -5  -7  298.97   11.20
   2  -5  -7  329.97   16.00
   2  -5  -7  296.77   11.80
   2  -5  -7  285.87   10.40
  -2   5   7  295.47   13.90
  -2   5   7  274.67   14.50
  -2   5   7  306.27   17.10
   1  -5  -7  895.71   23.60
   1  -5  -7  931.01   22.90
   1  -5  -7  890.41   23.20
   1  -5  -7  927.51   19.70
  -1   5   7  939.31   32.40
  -1   5   7  900.11   26.80
  -1   5   7  933.41   26.10
   0  -5  -7  194.68    8.50
   0  -5  -7  192.78   10.60
   0  -5  -7  206.98    8.90
   0   5   7  188.18   11.30
   0   5   7  202.58   11.80
   0   5   7  209.48   14.80
  -1  -5  -7   10.70    2.80
  -1  -5  -7    8.10    3.80
  -1  -5  -7   12.00    3.10
   1   5   7    6.10    4.80
   1   5   7    1.60    4.00
   1   5   7   14.50    3.80
  -2  -5  -7   57.59    5.10
  -2  -5  -7   70.69    7.60
  -2  -5  -7   58.19    6.00
  -2  -5  -7   62.09    5.80
   2   5   7   59.99    7.50
   2   5   7   65.79    9.80
   2   5   7   59.49    6.50
  -3  -5  -7  195.58    9.50
  -3  -5  -7  199.58    9.90
  -3  -5  -7  187.38   12.10
   3   5   7  197.98   10.90
   3   5   7  187.58    5.80
   3   5   7  204.58   12.30
   3   5   7  173.78   14.40
  -4  -5  -7  380.26   17.90
  -4  -5  -7  376.26   15.00
  -4  -5  -7  373.06   17.10
  -4  -5  -7  364.66   14.10
   4   5   7  418.56   21.30
   4   5   7  355.96   19.00
   4   5   7  387.96   17.50
  -5  -5  -7  660.53   21.60
  -5  -5  -7  677.23   21.10
  -5  -5  -7  648.34   25.00
  -5  -5  -7  701.53   26.00
   5   5   7  708.83   25.10
   5   5   7  643.74   19.60
   5   5   7  653.43   28.10
  -6  -5  -7   31.40    5.80
  -6  -5  -7   22.90    8.30
  -6  -5  -7   23.30    6.80
  -6  -5  -7   38.10    6.30
   6   5   7   34.70    7.80
   6   5   7   16.90    4.80
  -7  -5  -7   44.60    7.70
  -7  -5  -7   19.80    7.90
  -7  -5  -7   31.10    7.70
   7   5   7   38.40    8.10
   7   5   7   35.40    9.90
  -8  -5  -7   47.90    7.60
  -8  -5  -7   49.00    9.00
  -8  -5  -7   44.90   10.10
   8   5   7   47.40   10.00
   8   5   7   38.60    9.70
  -9  -5  -7  113.49   12.50
  -9  -5  -7  114.09   11.70
  -9  -5  -7   94.79   13.90
   9   5   7  132.29   14.90
   9   5   7   77.89   13.00
   8  -6  -7   21.80    7.30
  -8   6   7   52.69   10.50
   7  -6  -7   20.40    5.70
  -7   6   7   23.50    7.20
  -7   6   7   12.20    6.10
   6  -6  -7    1.70    4.50
  -6   6   7   -3.40    3.60
  -6   6   7    9.60    6.10
   5  -6  -7  303.17   15.20
   5  -6  -7  288.87   14.00
  -5   6   7  263.27   14.80
  -5   6   7  310.67   19.80
   4  -6  -7  133.99   10.10
   4  -6  -7  150.08    9.10
   4  -6  -7  141.19   10.40
  -4   6   7  157.38   10.90
  -4   6   7  141.69    8.50
  -4   6   7  123.29   10.10
   3  -6  -7  696.53   16.50
   3  -6  -7  687.13   21.10
   3  -6  -7  664.03   19.00
  -3   6   7  709.43   17.60
  -3   6   7  712.13   23.40
  -3   6   7  675.03   27.30
   2  -6  -7  123.39    7.00
   2  -6  -7  117.49    7.30
   2  -6  -7  114.39    7.10
  -2   6   7  108.09    9.40
  -2   6   7  139.29   13.00
  -2   6   7  128.89    9.90
  -2   6   7  117.99    5.10
   1  -6  -7   27.30    3.30
   1  -6  -7   26.90    5.30
   1  -6  -7   26.80    3.10
   1  -6  -7   27.70    3.50
  -1   6   7   24.50    2.80
  -1   6   7   26.80    5.00
  -1   6   7   29.00    7.80
  -1   6   7   29.60    5.70
   0  -6  -7   55.89    3.30
   0  -6  -7   52.99    3.30
   0  -6  -7   60.69    6.90
   0   6   7   59.09    9.20
   0   6   7   55.39    6.60
  -1  -6  -7  347.77    8.50
  -1  -6  -7  357.46    8.60
  -1  -6  -7  362.56   12.70
  -1  -6  -7  375.76   15.50
   1   6   7  342.57   13.70
   1   6   7  387.46   20.30
  -2  -6  -7  399.46   15.20
  -2  -6  -7  423.66   10.50
  -2  -6  -7  444.56   18.00
  -2  -6  -7  425.16   10.70
   2   6   7  438.06   21.80
   2   6   7  423.46   15.50
   2   6   7  412.96   16.60
  -3  -6  -7  661.33   22.10
  -3  -6  -7  659.73   16.00
  -3  -6  -7  615.94   16.10
  -3  -6  -7  649.64   23.60
   3   6   7  635.74   12.90
   3   6   7  665.03   22.00
   3   6   7  654.03   27.90
   3   6   7  637.84   20.70
  -4  -6  -7  117.09   10.80
  -4  -6  -7  123.29    7.70
  -4  -6  -7  115.19    6.70
   4   6   7  102.69    8.90
   4   6   7  111.09   12.80
   4   6   7  105.99   10.20
  -5  -6  -7    1.20    3.10
  -5  -6  -7    2.70    4.20
  -5  -6  -7   -4.40    4.10
  -5  -6  -7    3.10    3.40
   5   6   7    2.80    5.50
   5   6   7   -2.30    4.30
   5   6   7    5.20    3.00
  -6  -6  -7   32.00    5.20
  -6  -6  -7   33.90    7.60
  -6  -6  -7   23.50    7.10
  -6  -6  -7   29.90    5.50
   6   6   7   30.40    8.70
   6   6   7   34.50    5.30
  -7  -6  -7  172.58   11.60
  -7  -6  -7  183.08   11.60
  -7  -6  -7  171.08   14.90
  -7  -6  -7  194.08   15.90
   7   6   7  180.88   13.90
   7   6   7  179.88   17.10
  -8  -6  -7   72.19   12.20
  -8  -6  -7   82.49   11.70
   8   6   7   69.39   11.40
   7  -7  -7   31.60    6.70
  -7   7   7   30.20    8.50
  -7   7   7   21.80    6.90
   6  -7  -7  158.48   11.30
   6  -7  -7  184.28   12.70
  -6   7   7  176.08   13.90
  -6   7   7  181.28   14.50
   5  -7  -7   32.70    5.50
  -5   7   7   12.50    4.90
  -5   7   7   25.30    6.00
  -5   7   7   27.00    6.10
   4  -7  -7   97.29    7.10
   4  -7  -7   77.89    8.80
  -4   7   7  103.99    7.70
  -4   7   7  102.29   10.00
  -4   7   7  100.89    9.30
   3  -7  -7    4.30    2.30
   3  -7  -7    4.30    3.30
   3  -7  -7   10.90    3.30
   3  -7  -7    2.10    2.10
  -3   7   7    3.50    3.20
  -3   7   7    0.50    2.30
  -3   7   7    2.40    3.10
   2  -7  -7  635.74   18.00
   2  -7  -7  642.14   18.80
  -2   7   7  622.14   21.40
  -2   7   7  635.94   17.80
  -2   7   7  655.13   28.70
  -2   7   7  652.03   21.40
   1  -7  -7  220.08   10.70
  -1   7   7  204.18    7.40
  -1   7   7  240.68   17.00
  -1   7   7  204.78    9.60
  -1   7   7  220.38   11.50
  -1   7   7  191.08   11.10
   0  -7  -7  255.67   12.40
   0   7   7  250.17   17.50
   0   7   7  256.77   12.50
   0   7   7  229.98   12.10
   0   7   7  249.68    9.80
  -1  -7  -7   23.30    4.20
  -1  -7  -7   12.40    4.40
   1   7   7   28.30    7.00
   1   7   7   27.60    4.60
   1   7   7   15.70    4.40
  -2  -7  -7  475.75   26.30
  -2  -7  -7  488.55   19.80
   2   7   7  493.65   24.30
   2   7   7  486.65   16.80
   2   7   7  508.15   21.10
  -3  -7  -7    1.90    4.00
  -3  -7  -7   -0.40    4.50
   3   7   7   -0.40    4.30
   3   7   7    4.80    1.30
   3   7   7   13.60    4.00
   3   7   7    4.10    3.70
  -4  -7  -7  514.15   22.30
  -4  -7  -7  514.25   21.70
   4   7   7  517.55   25.40
   4   7   7  507.35   19.40
   4   7   7  483.25   22.00
  -5  -7  -7   61.49    9.20
  -5  -7  -7   69.79    9.70
  -5  -7  -7   63.89    4.90
  -5  -7  -7   66.29    4.60
   5   7   7   48.40    9.00
   5   7   7   50.49    5.90
   5   7   7   66.69    7.90
  -6  -7  -7   16.80    6.60
  -6  -7  -7   24.60    4.90
  -6  -7  -7   13.00    7.00
   6   7   7   12.10    7.20
   6   7   7   20.10    4.40
  -7  -7  -7    1.20    5.10
  -7  -7  -7   -8.50    4.60
  -7  -7  -7    6.70    6.10
  -7  -7  -7    2.30    3.40
   7   7   7    9.20    6.30
   7   7   7    7.80    6.20
  -8  -7  -7  118.19    9.70
  -8  -7  -7  144.09   14.20
   8   7   7  129.39   13.10
   8   7   7  141.59   17.60
   7  -8  -7    3.70    5.90
  -7   8   7    1.80    5.00
  -7   8   7    3.00    4.70
   6  -8  -7  226.38   12.40
   6  -8  -7  242.38   12.90
  -6   8   7  230.68   15.50
  -6   8   7  225.58   16.80
  -6   8   7  222.48   15.50
   5  -8  -7   17.90    4.10
  -5   8   7   18.90    5.20
  -5   8   7   27.30    6.40
   4  -8  -7  157.48    5.60
   4  -8  -7  140.69   11.30
   4  -8  -7  163.78    5.80
  -4   8   7  158.38   11.60
  -4   8   7  150.98    9.40
  -4   8   7  159.48   11.20
   3  -8  -7  118.79    6.30
   3  -8  -7  116.19    9.20
  -3   8   7  119.79    9.70
  -3   8   7  124.69    7.70
  -3   8   7  124.69    9.50
   2  -8  -7   78.49    8.00
   2  -8  -7   89.99    7.30
  -2   8   7   84.49   11.90
  -2   8   7   90.09    8.20
  -2   8   7   97.59    6.90
  -2   8   7   89.29    6.50
  -2   8   7   91.59    7.80
   1  -8  -7    3.30    3.50
  -1   8   7    9.30    3.00
  -1   8   7    4.20    2.10
  -1   8   7    4.20    4.60
   0  -8  -7  509.75   18.60
   0   8   7  486.45   17.40
   0   8   7  511.75   25.20
   0   8   7  469.75   16.60
   0   8   7  481.95   15.90
  -1  -8  -7   22.70    5.20
   1   8   7   20.20    3.80
   1   8   7   29.50    5.10
   1   8   7   18.40    3.90
   1   8   7   31.10    7.70
  -2  -8  -7  242.08   14.90
  -2  -8  -7  277.97   14.40
   2   8   7  255.87   11.50
   2   8   7  226.68   20.20
  -3  -8  -7   65.79    8.50
  -3  -8  -7   55.59    8.20
   3   8   7   61.29    9.90
   3   8   7   68.99    7.90
   3   8   7   59.19    3.70
   3   8   7   65.89    7.00
   3   8   7   62.89    3.70
  -4  -8  -7   73.19    9.80
  -4  -8  -7   91.29   10.80
   4   8   7   97.19   12.40
   4   8   7   68.39    8.90
   4   8   7   80.69    6.50
   4   8   7   88.19    8.60
  -5  -8  -7    2.80    4.70
   5   8   7   -1.00    2.60
   5   8   7    3.90    3.60
   5   8   7   11.30    6.80
  -6  -8  -7  284.77   18.50
  -6  -8  -7  301.87   19.80
   6   8   7  261.57   19.60
  -7  -8  -7   53.89   10.80
  -7  -8  -7   71.29   10.60
   7   8   7   53.19   11.30
   7   8   7   77.49   10.20
  -8  -8  -7   71.09   12.50
   8   8   7   79.59   12.20
   8   8   7   63.49    9.90
  -6   9   7    3.20    5.70
  -6   9   7   11.20    6.40
  -5   9   7    8.20    3.90
  -5   9   7   16.60    5.20
  -5   9   7   17.20    4.90
  -4   9   7    1.40    3.70
  -4   9   7   -0.10    3.70
  -4   9   7    4.10    3.90
   3  -9  -7  230.48   16.20
   3  -9  -7  237.18   10.00
  -3   9   7  279.47   19.40
  -3   9   7  274.87   13.20
  -3   9   7  249.58   11.70
  -3   9   7  246.98   13.20
   2  -9  -7   49.40    6.20
   2  -9  -7   56.39    6.30
  -2   9   7   61.29    7.10
  -2   9   7   48.80    5.70
  -2   9   7   49.50    6.80
  -2   9   7   50.09    6.20
  -2   9   7   52.29    9.50
   1  -9  -7  504.85   17.90
  -1   9   7  523.95   15.10
  -1   9   7  506.25   26.60
  -1   9   7  469.15   17.40
  -1   9   7  467.25   16.60
   0  -9  -7   18.00    4.60
   0   9   7   18.10    4.40
   0   9   7   20.20    2.60
   0   9   7   18.80    4.00
   0   9   7   13.50    4.10
   0   9   7   14.10    6.90
  -1  -9  -7   34.70    6.70
  -1  -9  -7   29.90    6.20
   1   9   7   20.50    4.30
   1   9   7   23.00    4.90
   1   9   7   17.80    4.50
   1   9   7   21.50    2.40
   1   9   7   22.80    7.90
  -2  -9  -7   17.00    5.30
  -2  -9  -7   24.20    6.10
   2   9   7   23.40    5.00
   2   9   7   28.20    4.50
   2   9   7   12.00    1.70
   2   9   7   19.40    7.00
   2   9   7   16.40    1.90
  -3  -9  -7  397.36   19.30
  -3  -9  -7  391.56   19.10
   3   9   7  405.06   17.70
   3   9   7  366.96   22.40
   3   9   7  389.36   11.10
   3   9   7  357.16   10.60
   3   9   7  385.06   15.40
  -4  -9  -7   72.69    9.80
  -4  -9  -7   75.09    9.80
   4   9   7   63.99    5.80
   4   9   7   65.39    7.70
   4   9   7   57.69    5.40
   4   9   7   74.89   11.80
  -5  -9  -7  346.87   19.80
  -5  -9  -7  340.07   19.40
   5   9   7  312.17   13.00
   5   9   7  335.87   16.30
   5   9   7  377.96   22.30
  -6  -9  -7   11.20    6.50
  -6  -9  -7   -8.70    5.00
   6   9   7   -6.70    6.30
   6   9   7   -0.10    5.00
  -7  -9  -7    2.60    5.40
  -7  -9  -7    1.40    6.00
   7   9   7    9.70    5.80
  -6  10   7   68.29    9.50
  -6  10   7   74.79   10.50
  -5  10   7  170.58   13.10
  -5  10   7  138.79   12.70
  -4  10   7   45.70    7.10
  -4  10   7   38.40    5.60
  -4  10   7   67.39    8.30
   3 -10  -7   53.19    7.70
  -3  10   7   64.39    7.70
  -3  10   7   76.39    7.70
  -3  10   7   54.99    7.20
  -3  10   7   65.89   11.40
   2 -10  -7   48.90    6.00
  -2  10   7   47.40    6.10
  -2  10   7   60.29    7.40
  -2  10   7   55.19    6.70
  -2  10   7   59.19   11.00
   1 -10  -7  245.98   13.10
  -1  10   7  247.58   10.80
  -1  10   7  221.98   20.00
  -1  10   7  246.18   11.60
   0 -10  -7  323.77   15.80
   0  10   7  304.37   10.60
   0  10   7  291.37   12.40
   0  10   7  296.57   12.70
   0  10   7  295.67   21.40
   0  10   7  287.47   14.00
  -1 -10  -7  281.87   18.70
  -1 -10  -7  259.37   15.40
   1  10   7  263.57   18.90
   1  10   7  242.68   13.70
   1  10   7  255.47    8.50
   1  10   7  247.28   11.50
   1  10   7  241.18   10.90
  -2 -10  -7   99.09   11.40
  -2 -10  -7   75.59    9.80
   2  10   7   63.49    6.10
   2  10   7   73.39    4.60
   2  10   7   68.19    6.90
   2  10   7   75.29   11.30
   2  10   7   68.79    4.60
  -3 -10  -7   19.80    5.90
  -3 -10  -7    9.70    6.30
   3  10   7   -6.20    4.30
   3  10   7    5.40    3.50
   3  10   7    8.30    3.80
   3  10   7    4.00    2.30
  -4 -10  -7   51.29    9.70
  -4 -10  -7   50.39    9.00
   4  10   7   39.70    4.80
   4  10   7   67.39    7.80
   4  10   7   43.00    8.80
   4  10   7   34.70    4.50
  -5 -10  -7  134.59   14.10
   5  10   7  135.89   15.30
   5  10   7  114.69    9.80
  -6 -10  -7  113.39   13.00
  -6 -10  -7   95.79   11.90
   6  10   7   84.69   10.00
   6  10   7   96.59   13.40
  -5  11   7   13.20    5.90
  -5  11   7   21.50    6.50
  -4  11   7  142.39   16.60
  -4  11   7  171.58   12.80
  -4  11   7  172.68   12.00
  -3  11   7   11.90    4.70
  -3  11   7    5.20    4.40
  -3  11   7    8.60    7.00
   2 -11  -7  210.28   11.80
  -2  11   7  213.38   11.60
  -2  11   7  228.88   11.10
  -2  11   7  190.68   19.40
  -2  11   7  218.68   11.40
   1 -11  -7   -2.40    3.80
  -1  11   7    2.40    3.60
  -1  11   7    2.50    4.90
  -1  11   7    9.50    3.70
  -1  11   7   16.70    8.30
   0 -11  -7   13.20    5.70
   0  11   7   13.90    4.10
   0  11   7   10.20    3.30
   0  11   7   10.60    3.70
   0  11   7   -1.00    5.50
  -1 -11  -7   17.80    6.90
  -1 -11  -7   10.30    4.40
   1  11   7   20.50    3.90
   1  11   7   14.10    3.20
   1  11   7   24.60    8.50
   1  11   7   11.50    3.70
  -2 -11  -7  346.87   18.50
  -2 -11  -7  338.77   20.10
   2  11   7  307.27   11.20
   2  11   7  312.77   21.20
   2  11   7  331.77   11.30
   2  11   7  301.37   12.20
   2  11   7  333.67   12.90
  -3 -11  -7    8.50    6.30
  -3 -11  -7   -1.30    4.40
   3  11   7    2.70    2.50
   3  11   7    1.60    3.50
   3  11   7   -6.80    2.60
   3  11   7    1.30    3.20
   3  11   7    9.00    6.30
  -4 -11  -7  128.69   13.70
   4  11   7  181.78   17.30
   4  11   7  185.28   10.90
  -5 -11  -7    6.20    5.10
  -5 -11  -7   18.90    7.40
   5  11   7    4.70    5.60
   5  11   7   -2.30    4.40
   5  11   7    3.90    3.20
  -3  12   7   11.00    8.50
  -3  12   7   20.40    5.70
  -3  12   7   15.90    5.30
  -2  12   7   11.40    7.60
  -2  12   7   11.70    4.40
  -2  12   7   25.30    4.60
   1 -12  -7   33.80    8.00
  -1  12   7   62.39    7.20
  -1  12   7   57.69    7.00
  -1  12   7   37.50    9.90
   0 -12  -7  139.99   12.50
   0  12   7  142.39    8.80
   0  12   7  118.39   14.20
  -1 -12  -7   80.89   10.20
  -1 -12  -7   88.89   10.50
   1  12   7   75.59    6.50
   1  12   7   64.19    6.00
   1  12   7   77.49   11.80
  -2 -12  -7   58.29    8.70
  -2 -12  -7   72.59   10.90
   2  12   7   45.80    5.40
   2  12   7   55.59    5.80
   2  12   7   50.89   10.00
  -3 -12  -7  -10.20    6.40
   3  12   7    7.50    3.60
   3  12   7    3.80    5.00
  -4 -12  -7   22.30    7.80
   4  12   7   28.70    5.30
   4  12   7   23.60    7.40
   1 -13  -7   25.60    6.90
  -1  13   7   21.40    5.20
   0 -13  -7   -6.20    5.00
   0  13   7   12.00    7.20
  -1 -13  -7  109.99   12.00
   1  13   7  101.19   12.50
  -2 -13  -7   -4.20    6.80
  -2 -13  -7    7.20    7.70
   2  13   7    3.50    6.40
   3   9  -8   65.99   13.70
  -3  -9   8   47.00   12.10
  -3  -9   8   51.59    9.40
   2   9  -8   22.60    6.90
   2   9  -8    1.80    6.20
  -2  -9   8    5.70    4.40
   1   9  -8   61.79   10.00
   1   9  -8   40.30    9.60
  -1  -9   8   48.40    6.20
   0   9  -8   17.80    7.00
   0   9  -8    0.70    6.50
   0  -9   8   -2.40    3.90
  -1   9  -8    1.10    6.50
  -1   9  -8   -2.30    4.80
   1  -9   8   -1.10    4.30
  -2   9  -8    4.80    6.90
  -2   9  -8   14.50    7.40
   2  -9   8    5.00    4.40
  -3   9  -8   50.09   10.20
  -3   9  -8   30.70   10.00
   3  -9   8   35.20    6.60
  -4   9  -8   -7.80    7.10
   4  -9   8   -5.90    5.20
  -4  -8   8  130.59   15.60
  -4  -8   8  114.39   10.80
   3   8  -8   22.90    7.80
  -3  -8   8   16.90    8.60
   2   8  -8   14.10    6.60
  -2  -8   8    0.90    5.50
  -2  -8   8   20.00    8.10
  -2  -8   8   10.60    5.30
   1   8  -8   11.40    6.40
   1   8  -8    2.30    5.40
  -1  -8   8  -11.20    5.60
  -1  -8   8   -1.70    4.20
   0   8  -8  203.78   17.00
   0   8  -8  222.28   20.70
   0  -8   8  208.48   12.40
   0  -8   8  178.98   13.30
  -1   8  -8    0.00    6.10
  -1   8  -8    4.00    7.10
   1  -8   8   14.60    4.80
   1  -8   8   -0.80    5.50
  -2   8  -8  150.18   16.30
  -2   8  -8  184.48   15.40
   2  -8   8  179.18   11.70
   2  -8   8  138.09   12.00
  -3   8  -8   -0.10    4.30
   3  -8   8   -2.90    4.90
  -4   8  -8   15.80    7.40
  -4   8  -8   45.30    9.80
  -5   8  -8   20.70    7.80
  -5   8  -8   10.00    7.70
   5  -8   8   14.80    5.70
   5   7  -8    2.80    5.60
  -5  -7   8   -1.20    4.50
   4   7  -8  170.08   16.40
  -4  -7   8  137.59   11.60
  -4  -7   8  155.08   16.70
   3   7  -8    0.10    7.10
  -3  -7   8    3.30    6.50
  -3  -7   8    5.50    5.40
   2   7  -8  269.77   18.70
  -2  -7   8  243.88   14.50
  -2  -7   8  256.67   19.00
   1   7  -8   56.39   10.10
   1   7  -8   65.09   10.80
  -1  -7   8   55.19    8.00
  -1  -7   8   39.40    7.20
   0   7  -8  -10.00    5.80
   0   7  -8   -8.90    4.30
   0  -7   8    0.40    4.70
   0  -7   8    1.50    4.30
  -1   7  -8   -0.20    5.50
  -1   7  -8    4.20    6.00
   1  -7   8   -4.70    4.00
   1  -7   8    2.80    6.00
  -2   7  -8  356.36   13.90
  -2   7  -8  384.66   24.00
  -2   7  -8  378.26   21.30
   2  -7   8  381.56   17.70
  -3   7  -8   -7.30    5.90
  -3   7  -8    7.90    6.60
  -3   7  -8   12.40    4.20
   3  -7   8    3.10    4.60
  -4   7  -8  168.38   15.40
  -4   7  -8  208.08   19.20
   4  -7   8  183.18   13.60
  -5   7  -8   18.30   11.10
  -5   7  -8   26.70    8.00
   5  -7   8   39.50    7.30
  -6   7  -8   -6.30    5.20
  -6   7  -8    7.80    5.70
   6  -7   8   13.90    6.60
   6   6  -8   25.20    8.60
  -6  -6   8   11.80    6.20
  -6  -6   8    5.90    6.20
   5   6  -8  114.29   12.30
  -5  -6   8  117.79   13.00
   4   6  -8    4.00    5.40
  -4  -6   8    2.50    5.50
  -4  -6   8   -1.20    4.10
   3   6  -8   -6.80    4.30
  -3  -6   8   -3.30    6.40
   2   6  -8    9.10    6.50
  -2  -6   8    2.00    6.20
  -2  -6   8   16.20    6.00
   1   6  -8  212.78   16.40
   1   6  -8  182.38   16.10
  -1  -6   8  202.78   13.60
   0   6  -8   54.69    9.30
   0   6  -8   48.30    9.50
   0  -6   8   46.50    7.60
  -1   6  -8  107.49   13.40
  -1   6  -8  141.99   12.90
   1  -6   8  108.29   10.50
  -2   6  -8   -0.60    5.70
  -2   6  -8   10.10    6.70
  -2   6  -8   -1.20    2.70
   2  -6   8    6.80    3.90
   2  -6   8   14.10    5.40
  -3   6  -8   -7.00    5.00
  -3   6  -8    3.00    3.90
  -3   6  -8    0.30    3.80
   3  -6   8   -1.90    3.80
   3  -6   8    3.60    5.10
  -4   6  -8    1.30    6.10
  -4   6  -8    4.30    6.20
   4  -6   8    1.90    4.00
  -5   6  -8  144.39   14.60
  -5   6  -8  118.99   14.50
   5  -6   8  139.89   11.70
   6  -6   8   17.40    7.10
  -7   6  -8   55.09   11.80
  -7   6  -8   66.79   12.20
   7  -6   8   58.49    9.80
   6   5  -8    7.30    6.00
  -6  -5   8   -9.10    3.60
  -6  -5   8   -6.10    4.80
  -6  -5   8    1.60    6.30
   5   5  -8   98.49   12.50
  -5  -5   8  118.89    8.20
  -5  -5   8  107.49    8.80
  -5  -5   8  118.39   12.30
  -5  -5   8  123.69   12.00
   4   5  -8  132.19   13.10
  -4  -5   8  120.99    6.30
  -4  -5   8  112.99    7.80
  -4  -5   8  118.19   12.10
  -4  -5   8  135.39   13.80
   3   5  -8  284.87   18.60
  -3  -5   8  299.27    8.30
  -3  -5   8  296.87    9.10
   2   5  -8  188.18   16.60
  -2  -5   8  178.08   14.70
  -2  -5   8  191.48   13.70
   1   5  -8  112.09   13.50
   1   5  -8  119.09   13.00
  -1  -5   8  114.29    4.90
  -1  -5   8  130.79   11.00
   0   5  -8    5.80    5.60
   0  -5   8   14.70    3.00
   0  -5   8   13.60    6.30
  -1   5  -8  171.38   15.10
  -1   5  -8  172.28    9.50
   1  -5   8  186.88    9.70
   1  -5   8  171.28   12.80
  -2   5  -8  263.07   13.10
  -2   5  -8  285.87   19.00
  -2   5  -8  257.17   18.20
  -3   5  -8  297.67   19.60
  -3   5  -8  308.57   18.50
   3  -5   8  309.07   15.70
   3  -5   8  331.27   17.60
  -4   5  -8   97.59   12.40
  -4   5  -8  100.09   12.20
   4  -5   8   98.49   10.30
   4  -5   8  104.79   11.40
  -5   5  -8   11.40    6.60
  -5   5  -8   20.10    6.80
   5  -5   8   26.70    7.00
   5  -5   8   13.20    5.40
  -6   5  -8   24.40    8.40
  -6   5  -8   43.50    9.20
   6  -5   8   30.30    8.00
   6  -5   8   23.00    7.80
  -7   5  -8   75.99   12.10
  -7   5  -8   87.29   12.60
   7  -5   8   75.09   10.40
   7  -5   8   65.99   11.20
  -7  -4   8   24.60   10.10
  -7  -4   8   53.39    8.40
  -6  -4   8  250.17   16.40
  -6  -4   8  226.28   13.90
  -6  -4   8  262.27   17.90
   5   4  -8   78.99   11.90
  -5  -4   8   64.59   10.60
  -5  -4   8   53.89    6.80
  -5  -4   8   57.29    7.40
  -5  -4   8   57.29    9.30
   4   4  -8   74.99   10.30
  -4  -4   8   81.89   10.20
  -4  -4   8   75.79    7.40
  -4  -4   8   71.79    9.50
  -4  -4   8   72.59    7.40
   3   4  -8    3.30    5.50
  -3  -4   8    6.30    2.80
  -3  -4   8    6.60    5.90
   2   4  -8  298.07   21.90
  -2  -4   8  296.77   16.80
  -2  -4   8  300.67   10.90
  -2  -4   8  275.97   16.60
   1   4  -8  177.48   14.30
   1   4  -8  204.18   15.70
  -1  -4   8  202.58    8.90
  -1  -4   8  216.98   14.00
   0   4  -8  660.03   27.30
   0   4  -8  615.14   25.30
   0   4  -8  670.33   28.80
   0  -4   8  640.34   18.50
   0  -4   8  631.54   24.00
  -1   4  -8   58.89    9.50
  -1   4  -8   45.80    5.70
  -1   4  -8   54.19    8.80
   1  -4   8   41.40    5.30
   1  -4   8   48.80    8.20
  -2   4  -8   54.29   10.80
  -2   4  -8   39.00    5.70
  -2   4  -8   32.70    7.00
   2  -4   8   37.90    5.70
   2  -4   8   51.39    8.50
  -3   4  -8   -4.50    5.00
  -3   4  -8   -4.20    4.30
  -3   4  -8    0.60    3.40
   3  -4   8   -2.60    3.60
   3  -4   8   -8.90    3.90
  -4   4  -8  322.27   19.90
  -4   4  -8  296.77   18.80
   4  -4   8  315.27   17.50
   4  -4   8  308.37   17.20
  -5   4  -8   41.60    9.10
  -5   4  -8   62.19   10.10
   5  -4   8   42.20    8.20
   5  -4   8   43.30    8.30
  -6   4  -8  142.89   14.00
  -6   4  -8  136.29   14.50
   6  -4   8  125.89   13.10
   6  -4   8  130.99   13.90
  -7   4  -8   -2.60    5.70
  -7   4  -8   -2.40    5.90
   7  -4   8    2.60    5.00
   7  -4   8   11.30    5.80
  -8   4  -8   -3.10    5.90
   8  -4   8   11.90    8.00
   8  -4   8   -3.10    6.30
  -7  -3   8    4.60    6.80
  -7  -3   8    1.50    5.20
  -6  -3   8   -0.40    5.30
  -6  -3   8   -8.70    3.70
   5   3  -8   40.30    8.40
  -5  -3   8   49.99    9.10
  -5  -3   8   43.90    7.70
   4   3  -8  192.98   14.40
  -4  -3   8  191.88   13.90
  -4  -3   8  211.68   16.00
  -4  -3   8  189.38   11.50
   3   3  -8   76.09    8.40
   3   3  -8   58.59    9.50
  -3  -3   8   85.09   10.10
  -3  -3   8   68.29    9.70
  -3  -3   8   68.49    7.40
   2   3  -8   34.00    5.70
   2   3  -8   41.90    8.70
  -2  -3   8   39.20    7.10
  -2  -3   8   35.30    7.80
  -2  -3   8   34.30    4.80
   1   3  -8   17.50    5.30
   1   3  -8   29.30    7.20
  -1  -3   8   24.30    4.10
  -1  -3   8   25.60    6.30
   0   3  -8   28.70    7.60
   0   3  -8   14.80    4.70
   0   3  -8   35.10    7.20
   0  -3   8   25.80    4.70
   0  -3   8   26.20    6.40
  -1   3  -8   25.10    5.80
  -1   3  -8   15.00    6.10
  -1   3  -8   30.90    7.10
  -1   3  -8   19.50    4.70
   1  -3   8   29.70    5.00
   1  -3   8   37.10    7.50
  -2   3  -8  239.18   14.50
  -2   3  -8  224.48   15.80
  -2   3  -8  236.18   16.10
  -2   3  -8  245.38   13.00
   2  -3   8  243.58   14.80
   2  -3   8  244.18   13.20
  -3   3  -8   71.69    8.40
  -3   3  -8   85.49   17.10
  -3   3  -8   79.49    9.90
   3  -3   8   77.59    9.70
   3  -3   8   74.59    9.40
  -4   3  -8   42.30    8.10
  -4   3  -8   51.49    8.90
   4  -3   8   68.89    9.60
   4  -3   8   38.50    7.90
  -5   3  -8   36.70    8.80
  -5   3  -8    9.50    5.70
   5  -3   8   13.00    6.90
   5  -3   8   29.10    7.00
  -6   3  -8   46.10    8.90
  -6   3  -8   55.79    9.50
   6  -3   8   49.30    9.40
   6  -3   8   41.20    8.30
  -7   3  -8   66.59   10.90
  -7   3  -8   47.90   10.10
   7  -3   8   41.60    8.60
   7  -3   8   43.70    9.40
  -8   3  -8   93.69   12.90
  -8   3  -8   61.39   13.50
   8  -3   8   89.79   12.40
  -8  -2   8    7.70    6.30
  -8  -2   8    9.80    5.60
   7   2  -8  297.77   20.50
  -7  -2   8  306.37   19.90
  -7  -2   8  286.77   17.60
  -6  -2   8   -3.10    3.30
  -6  -2   8   15.80    6.90
   5   2  -8  228.28   16.20
  -5  -2   8  218.68   13.60
  -5  -2   8  222.48   16.80
   4   2  -8   11.80    5.60
   4   2  -8    6.00    3.90
  -4  -2   8   21.10    7.60
  -4  -2   8   12.50    5.30
   3   2  -8  140.09   10.70
  -3  -2   8  122.39   10.10
  -3  -2   8  117.89   11.90
  -3  -2   8  128.49    9.70
   2   2  -8  119.29   12.90
   2   2  -8  124.99    9.20
  -2  -2   8  108.39   10.80
  -2  -2   8  121.59    9.70
  -2  -2   8  121.79    9.00
   1   2  -8 1386.16   40.60
   1   2  -8 1430.56   36.00
  -1  -2   8 1408.66   34.70
  -1  -2   8 1453.25   39.90
   0   2  -8   -1.10    4.20
   0   2  -8   -5.70    3.20
   0   2  -8   -0.50    4.40
   0  -2   8   -1.10    3.70
   0  -2   8   -4.70    2.80
  -1   2  -8  242.48   12.80
  -1   2  -8  249.08   15.40
  -1   2  -8  230.58   12.70
  -1   2  -8  241.48   14.90
   1  -2   8  226.98   12.60
   1  -2   8  241.28   14.40
  -2   2  -8   13.70    4.00
  -2   2  -8   14.50    5.90
  -2   2  -8    6.20    5.10
  -2   2  -8    3.90    5.80
   2  -2   8   10.70    5.10
   2  -2   8   10.40    5.00
  -3   2  -8  365.36   18.50
  -3   2  -8  386.96   19.30
  -3   2  -8  339.97   16.70
   3  -2   8  382.06   18.90
   3  -2   8  373.36   17.70
  -4   2  -8   16.20    5.20
  -4   2  -8    7.70    5.60
   4  -2   8   17.70    6.00
  -5   2  -8  730.73   28.20
  -5   2  -8  682.73   27.90
   5  -2   8  698.53   27.40
   5  -2   8  724.43   28.40
  -6   2  -8    9.50    5.60
  -6   2  -8   -2.70    6.10
   6  -2   8    9.50    5.50
   6  -2   8    3.50    5.00
  -7   2  -8   31.10    7.70
  -7   2  -8   31.50    7.90
   7  -2   8   39.40   10.20
   7  -2   8   18.80    6.30
  -8   2  -8    6.00    4.30
  -8   2  -8   -2.00    5.90
  -8   2  -8    1.80    5.50
   8  -2   8    1.70    6.10
   8   1  -8   19.00    7.50
  -8  -1   8   22.00    7.80
  -8  -1   8   34.80    7.30
  -7  -1   8    4.50    5.70
  -7  -1   8   -2.20    4.80
   6   1  -8   30.80    6.40
  -6  -1   8   27.90    7.40
  -6  -1   8   25.50    5.50
   5   1  -8  452.45   18.00
   5   1  -8  465.55   22.50
  -5  -1   8  482.75   19.50
  -5  -1   8  465.35   22.70
   4   1  -8  183.08   13.70
   4   1  -8  178.38   10.90
  -4  -1   8  175.28   13.70
  -4  -1   8  175.68   11.20
   3   1  -8  467.85   21.30
   3   1  -8  452.35   17.10
  -3  -1   8  487.05   19.40
  -3  -1   8  454.35   20.30
  -3  -1   8  495.15   22.00
   2   1  -8   64.59    6.50
   2   1  -8   76.59   10.00
  -2  -1   8   60.49    6.70
  -2  -1   8   51.69    8.60
  -2  -1   8   72.49    8.40
   1   1  -8   79.99    9.80
   1   1  -8   94.59    7.30
  -1  -1   8   83.69    7.90
  -1  -1   8   76.89    9.30
   0   1  -8  291.17   15.10
   0   1  -8  265.37   11.90
   0   1  -8  267.87   15.30
   0  -1   8  260.07   13.30
   0  -1   8  270.87   15.10
  -1   1  -8  421.96   18.20
  -1   1  -8  427.76   17.80
  -1   1  -8  408.16   19.10
  -1   1  -8  416.76   16.40
   1  -1   8  416.56   18.80
   1  -1   8  439.46   17.90
  -2   1  -8  617.74   24.60
  -2   1  -8  655.53   23.20
  -2   1  -8  678.33   27.70
  -2   1  -8  651.23   22.70
   2  -1   8  702.23   25.10
   2  -1   8  689.23   24.10
  -3   1  -8   89.69   10.30
  -3   1  -8   65.69    8.40
  -3   1  -8   71.09    8.90
   3  -1   8   62.79    9.20
   3  -1   8   75.09    9.10
  -4   1  -8   13.70    5.40
  -4   1  -8    9.10    4.10
   4  -1   8    0.60    4.20
   4  -1   8    7.70    4.80
   4  -1   8    8.20    4.10
  -5   1  -8   29.50    6.50
  -5   1  -8   31.60    7.10
   5  -1   8   33.90    7.60
   5  -1   8   34.50    7.00
  -6   1  -8   89.69   11.40
  -6   1  -8   95.59   12.00
   6  -1   8   95.19   12.30
   6  -1   8   99.89   11.10
  -7   1  -8  226.18   16.40
  -7   1  -8  209.78   16.60
  -7   1  -8  204.18   16.50
   7  -1   8  217.78   16.20
   7  -1   8  203.48   18.10
  -8   1  -8   89.09   11.80
  -8   1  -8  122.19   13.20
   8  -1   8  125.49   15.40
   8  -1   8   83.69   13.90
  -9   1  -8    0.50    7.30
   9  -1   8   -8.70    7.60
   8   0  -8   40.90   10.90
  -8   0   8   38.60    9.50
  -8   0   8   54.69    9.20
   7   0  -8   -1.20    4.20
  -7   0   8   -2.90    4.30
  -7   0   8    2.20    5.90
  -6   0   8  217.98   16.70
  -6   0   8  234.58   13.40
   5   0  -8   -0.50    4.60
  -5   0   8    1.40    4.60
  -5   0   8   -6.90    2.90
   4   0  -8    5.80    4.00
   4   0  -8    2.70    4.50
  -4   0   8   16.20    6.00
   3   0  -8   10.40    6.30
  -3   0   8    3.90    4.30
  -3   0   8    7.60    3.70
   2   0  -8   92.29   11.30
   2   0  -8  105.39    6.70
  -2   0   8   87.99   10.00
  -2   0   8  103.39   10.30
  -2   0   8   98.89    7.10
   1   0  -8    0.90    3.90
   1   0  -8    9.60    4.70
   1   0  -8    7.30    2.80
  -1   0   8    8.70    4.00
  -1   0   8   -3.40    3.60
   0   0  -8  322.37   14.90
   0   0  -8  318.67   11.90
   0   0  -8  297.97   15.00
   0   0  -8  304.27   16.10
   0   0   8  328.47   15.30
   0   0   8  314.17   16.00
   0   0   8  336.87   16.50
  -1   0  -8    5.00    3.70
  -1   0  -8   -3.50    4.10
  -1   0  -8    3.60    4.00
  -1   0  -8   -0.30    3.90
  -1   0  -8    2.40    2.80
   1   0   8    3.20    3.30
   1   0   8   -0.10    3.40
   1   0   8    1.90    4.20
  -2   0  -8   18.40    5.60
  -2   0  -8   16.00    5.20
  -2   0  -8   17.30    4.60
  -2   0  -8   14.10    5.40
   2   0   8   12.20    4.60
   2   0   8   15.20    5.60
  -3   0  -8    9.10    4.70
  -3   0  -8    6.70    3.90
  -3   0  -8   -0.40    4.20
   3   0   8   -2.50    3.60
   3   0   8   -2.20    4.10
  -4   0  -8  344.47   17.70
  -4   0  -8  387.86   16.90
   4   0   8  357.26   19.00
   4   0   8  366.56   18.80
  -5   0  -8    0.40    4.60
  -5   0  -8   -2.60    4.70
   5   0   8    5.10    5.80
   5   0   8    1.10    3.80
   5   0   8   -1.10    4.90
  -6   0  -8   88.29   11.00
  -6   0  -8  101.69   11.70
   6   0   8  109.89   13.20
   6   0   8   94.29   11.60
  -7   0  -8   -1.40    4.50
  -7   0  -8    0.00    4.60
  -7   0  -8    3.10    5.60
   7   0   8   -5.50    4.60
   7   0   8    2.30    5.40
  -8   0  -8   -8.50    4.20
  -8   0  -8    1.30    5.90
  -8   0  -8    7.30    6.40
   8   0   8   -3.00    5.30
  -9   0  -8   -0.30    6.00
  -9   0  -8    3.60    6.20
  -9   0  -8    7.50    5.70
   9   0   8   -0.50    8.10
   8  -1  -8    9.40    6.40
  -8   1   8    8.00    7.20
  -8   1   8    0.00    4.90
   7  -1  -8   65.89    7.00
  -7   1   8   69.59    8.70
  -7   1   8   81.99   11.40
   6  -1  -8   71.69   10.40
   6  -1  -8   53.79    5.90
  -6   1   8   66.59    9.90
  -6   1   8   67.99    7.70
   5  -1  -8  491.55   16.40
   5  -1  -8  564.44   24.30
  -5   1   8  504.45   23.30
  -5   1   8  488.85   17.50
   4  -1  -8  160.68   15.10
   4  -1  -8  158.48    9.10
  -4   1   8  146.59    8.60
   3  -1  -8  193.88   12.70
   3  -1  -8  228.78   14.30
  -3   1   8  219.48   14.60
  -3   1   8  213.78    9.10
   2  -1  -8    1.50    5.60
   2  -1  -8    4.20    4.30
  -2   1   8    5.10    4.20
  -2   1   8    5.10    4.40
   1  -1  -8  219.58   13.60
   1  -1  -8  241.48    8.00
   1  -1  -8  237.68   13.80
  -1   1   8  229.88   14.00
  -1   1   8  267.67   15.00
   0  -1  -8  613.64   15.70
   0  -1  -8  643.04   23.00
   0  -1  -8  632.44   22.60
   0  -1  -8  626.34   19.50
   0   1   8  656.73   23.40
   0   1   8  634.14   23.20
   0   1   8  608.64   22.20
  -1  -1  -8  292.17   12.20
  -1  -1  -8  291.07   15.10
  -1  -1  -8  305.67   15.00
  -1  -1  -8  271.77   18.50
  -1  -1  -8  284.37   11.50
   1   1   8  269.87   14.70
   1   1   8  328.37   16.30
   1   1   8  289.47   15.40
  -2  -1  -8  424.56   18.40
  -2  -1  -8  430.56   15.10
  -2  -1  -8  432.46   18.70
  -2  -1  -8  403.86   19.10
   2   1   8  437.86   21.20
   2   1   8  420.06   19.20
   2   1   8  423.76   19.50
  -3  -1  -8   58.79    6.40
  -3  -1  -8   49.60    8.00
  -3  -1  -8   55.49    7.50
  -3  -1  -8   48.20    8.90
   3   1   8   60.79    8.70
   3   1   8   56.79    8.40
  -4  -1  -8   16.90    5.60
  -4  -1  -8   12.60    3.90
   4   1   8   23.10    6.60
   4   1   8    8.10    5.90
   4   1   8    8.60    3.00
  -5  -1  -8  115.19   10.10
  -5  -1  -8  118.39   13.30
   5   1   8  101.19    9.10
   5   1   8  122.39   11.60
  -6  -1  -8  169.98   14.20
  -6  -1  -8  181.38   13.70
  -6  -1  -8  177.38   12.50
   6   1   8  151.38   14.00
   6   1   8  180.88   15.30
  -7  -1  -8  237.18   16.70
  -7  -1  -8  230.48   16.50
  -7  -1  -8  221.68   15.20
   7   1   8  249.18   17.60
   7   1   8  214.98   17.60
  -8  -1  -8   79.89   10.40
  -8  -1  -8   88.89   12.10
  -8  -1  -8   76.79   10.90
   8   1   8   90.59   14.30
   8   1   8   88.69   12.90
  -9  -1  -8   -2.20    5.00
  -9  -1  -8   -1.20    5.00
  -9  -1  -8    7.30    6.50
   9   1   8    3.30    5.70
   9   1   8   15.30    7.40
  -8   2   8   -5.40    4.30
  -8   2   8    3.30    5.90
  -7   2   8  312.47   15.70
  -7   2   8  346.87   20.70
   6  -2  -8   15.10    6.00
   6  -2  -8    7.20    2.80
  -6   2   8   12.60    6.00
  -6   2   8    7.70    3.80
   5  -2  -8    4.00    2.40
   5  -2  -8    7.40    6.30
  -5   2   8    0.60    4.60
  -5   2   8    1.70    3.70
   4  -2  -8   84.19    9.40
   4  -2  -8   98.39   10.50
  -4   2   8   95.39    6.50
   3  -2  -8 1137.59   31.90
   3  -2  -8 1180.38   35.50
  -3   2   8 1164.18   24.60
  -3   2   8 1190.08   35.40
   2  -2  -8    5.60    3.60
   2  -2  -8   -0.20    3.10
   2  -2  -8    2.20    4.30
  -2   2   8    0.80    5.50
  -2   2   8   -0.40    4.30
   1  -2  -8 1583.94   40.40
   1  -2  -8 1476.25   39.10
  -1   2   8 1570.14   43.10
  -1   2   8 1547.75   41.30
   0  -2  -8  125.19    4.20
   0  -2  -8  138.59   11.20
   0  -2  -8  118.59    7.20
   0   2   8  128.69   10.40
   0   2   8  115.19   10.70
   0   2   8  118.39    9.70
  -1  -2  -8   23.50    5.70
  -1  -2  -8   17.40    6.00
  -1  -2  -8   16.40    3.30
   1   2   8   29.60    6.50
   1   2   8   22.70    5.90
   1   2   8   21.20    5.40
  -2  -2  -8   30.40    6.40
  -2  -2  -8   23.00    3.40
  -2  -2  -8   20.40    5.20
  -2  -2  -8   17.00    4.50
   2   2   8   18.20    5.50
   2   2   8   24.70    6.20
   2   2   8   24.70    5.70
  -3  -2  -8 1212.98   34.00
  -3  -2  -8 1196.58   34.30
  -3  -2  -8 1255.17   29.20
   3   2   8 1253.57   38.40
   3   2   8 1261.47   36.10
   3   2   8 1230.68   29.00
  -4  -2  -8   51.19    6.10
  -4  -2  -8   45.10    7.00
  -4  -2  -8   42.80    7.60
   4   2   8   54.29    8.40
   4   2   8   37.50    7.90
   4   2   8   42.20    5.20
  -5  -2  -8  673.83   26.00
  -5  -2  -8  648.64   23.90
  -5  -2  -8  614.44   21.70
   5   2   8  672.43   29.80
   5   2   8  637.44   21.30
  -6  -2  -8   -3.00    4.20
  -6  -2  -8    3.60    4.70
  -6  -2  -8    5.80    4.40
   6   2   8   -6.10    3.20
   6   2   8    5.00    6.50
   6   2   8   -1.70    5.20
  -7  -2  -8   22.40    7.70
  -7  -2  -8    8.60    5.30
  -7  -2  -8   13.10    7.40
   7   2   8   23.20    6.90
   7   2   8   14.00    6.80
  -8  -2  -8    8.10    6.10
  -8  -2  -8   15.40    6.80
  -8  -2  -8   15.20    7.00
   8   2   8   20.10    7.00
  -9  -2  -8  198.38   16.40
  -9  -2  -8  216.18   15.90
  -9  -2  -8  203.48   16.70
   9   2   8  173.18   18.40
   9   2   8  214.78   17.80
  -8   3   8   -2.40    8.40
  -8   3   8   11.60    6.10
   7  -3  -8   23.40    8.10
  -7   3   8   13.30    6.80
  -7   3   8   13.80    5.20
   6  -3  -8  119.29   12.20
   6  -3  -8   92.39    3.40
  -6   3   8   89.59    8.00
  -6   3   8   93.79   11.40
   5  -3  -8   73.19    9.60
  -5   3   8   75.49   10.60
  -5   3   8   56.49    6.00
   4  -3  -8  317.47   17.10
   4  -3  -8  321.07   16.00
  -4   3   8  327.17   10.60
  -4   3   8  318.97   17.70
   3  -3  -8  166.58   10.80
   3  -3  -8  170.98   13.40
   3  -3  -8  145.49   10.00
  -3   3   8  166.08   12.50
   2  -3  -8    4.50    3.40
   2  -3  -8    4.50    4.40
   2  -3  -8   -1.80    3.00
  -2   3   8    4.50    4.30
  -2   3   8    5.90    4.40
   1  -3  -8   55.69    8.00
   1  -3  -8   52.19    6.20
   1  -3  -8   50.69    7.00
  -1   3   8   36.90    7.10
  -1   3   8   41.80    6.70
  -1   3   8   54.89    7.90
   0  -3  -8  498.55   18.50
   0  -3  -8  493.65   18.90
   0  -3  -8  496.85   13.30
   0  -3  -8  485.25   12.90
   0   3   8  501.55   21.70
   0   3   8  489.85   19.60
   0   3   8  477.45   19.20
  -1  -3  -8  237.88    7.80
  -1  -3  -8  231.58   14.70
  -1  -3  -8  241.28    7.30
  -1  -3  -8  255.17   12.70
  -1  -3  -8  242.48   12.60
   1   3   8  229.48   13.10
   1   3   8  261.57   14.90
   1   3   8  249.48   15.90
  -2  -3  -8  682.33   22.60
  -2  -3  -8  724.83   22.80
  -2  -3  -8  691.83   15.90
   2   3   8  673.43   23.30
   2   3   8  697.53   26.80
   2   3   8  693.93   24.50
  -3  -3  -8   95.59    6.10
  -3  -3  -8   86.19    9.70
  -3  -3  -8   81.89    8.30
  -3  -3  -8   87.89    9.60
   3   3   8   87.39   11.20
   3   3   8   90.19   10.10
  -4  -3  -8   14.10    5.60
  -4  -3  -8   10.10    3.00
  -4  -3  -8    7.90    4.90
  -4  -3  -8   15.40    4.80
   4   3   8    8.10    2.80
   4   3   8   18.60    5.30
   4   3   8   11.50    5.30
  -5  -3  -8   28.90    5.20
  -5  -3  -8   36.90    6.80
  -5  -3  -8   29.90    6.80
   5   3   8   27.20    7.60
   5   3   8   31.50    7.60
   5   3   8   34.80    5.30
  -6  -3  -8  258.07   16.50
  -6  -3  -8  287.07   15.10
   6   3   8  263.87   16.50
   6   3   8  253.97   13.50
   6   3   8  289.67   20.80
  -7  -3  -8   63.49    8.90
  -7  -3  -8   44.60    8.20
  -7  -3  -8   61.49    8.30
   7   3   8   44.90    8.90
   7   3   8   46.70    9.20
  -8  -3  -8  119.59   13.00
  -8  -3  -8  108.99   11.70
  -8  -3  -8  107.29   12.50
   8   3   8  110.59   12.90
  -9  -3  -8    7.30    5.40
   9   3   8    8.20    6.00
  -8   4   8  166.38   13.50
  -8   4   8  210.18   16.80
   7  -4  -8   27.10    7.10
  -7   4   8   12.00    5.90
  -7   4   8   19.40    5.20
   6  -4  -8   77.59   10.60
  -6   4   8   83.59    7.90
  -6   4   8  100.09   11.90
   5  -4  -8   29.30    9.00
  -5   4   8   34.50    7.70
  -5   4   8   38.40    4.80
   4  -4  -8  286.77   14.80
   4  -4  -8  298.97    9.70
   4  -4  -8  288.67   16.20
  -4   4   8  296.17   17.50
  -4   4   8  298.87    9.40
   3  -4  -8  134.79    9.40
   3  -4  -8  142.29    7.60
   3  -4  -8  146.19   11.60
   3  -4  -8  129.99   10.10
  -3   4   8  132.09   10.90
   2  -4  -8  511.15   16.00
   2  -4  -8  474.25   17.70
   2  -4  -8  508.25   16.40
   2  -4  -8  493.05   19.10
  -2   4   8  482.95   22.70
  -2   4   8  492.95   20.10
   1  -4  -8   19.40    4.50
   1  -4  -8    9.60    2.60
   1  -4  -8   14.90    4.40
   1  -4  -8   20.10    4.70
  -1   4   8   11.00    5.20
  -1   4   8   11.60    4.90
  -1   4   8   13.60    5.20
   0  -4  -8  122.99    8.90
   0  -4  -8  120.89    8.70
   0  -4  -8  104.69    8.90
   0   4   8  102.89    9.60
   0   4   8  116.09   10.00
   0   4   8  116.89   11.70
  -1  -4  -8   82.39    7.70
  -1  -4  -8   68.99    4.30
  -1  -4  -8   72.19    7.70
  -1  -4  -8   77.79    7.40
   1   4   8   94.69   11.30
   1   4   8   75.99    9.30
   1   4   8   59.69    7.30
  -2  -4  -8  544.05   18.60
  -2  -4  -8  537.95   16.00
  -2  -4  -8  569.54   21.00
  -2  -4  -8  546.05   18.20
   2   4   8  537.15   23.90
   2   4   8  538.75   19.90
   2   4   8  511.05   20.70
  -3  -4  -8  299.97   13.40
  -3  -4  -8  299.57   15.80
  -3  -4  -8  290.87   13.00
  -3  -4  -8  295.57   14.10
   3   4   8  297.77   16.20
   3   4   8  283.67   18.60
  -4  -4  -8  483.65   19.60
  -4  -4  -8  468.35   20.60
  -4  -4  -8  472.15   14.60
  -4  -4  -8  487.05   18.30
  -4  -4  -8  474.65   21.80
   4   4   8  452.35   13.80
   4   4   8  456.25   19.90
   4   4   8  473.15   24.50
  -5  -4  -8   96.39    8.20
  -5  -4  -8   92.39    9.70
  -5  -4  -8   94.99    9.20
  -5  -4  -8   87.89   10.30
  -5  -4  -8  102.39   10.40
   5   4   8  115.89   13.00
   5   4   8   72.89   10.00
   5   4   8   89.69    7.30
  -6  -4  -8    1.60    3.70
  -6  -4  -8    7.30    3.90
  -6  -4  -8   -2.90    4.90
  -6  -4  -8    3.50    5.10
   6   4   8    5.50    5.00
   6   4   8   -1.40    3.40
   6   4   8    8.20    5.50
  -7  -4  -8   67.29    8.50
  -7  -4  -8   76.09   10.10
  -7  -4  -8   61.89   11.00
  -7  -4  -8   48.70    9.50
   7   4   8   60.39   10.00
   7   4   8   53.79   11.00
  -8  -4  -8  221.28   15.10
  -8  -4  -8  221.48   18.40
  -8  -4  -8  252.37   20.80
   8   4   8  239.28   17.60
   8   4   8  198.58   21.60
  -9  -4  -8   36.90    8.20
  -9  -4  -8   36.20    8.30
  -9  -4  -8   21.50    8.10
   9   4   8   38.80    8.60
   8  -5  -8   19.10    7.70
  -8   5   8   31.20    8.40
  -8   5   8    8.80    5.10
   7  -5  -8   78.49   10.90
  -7   5   8  101.99    9.40
  -7   5   8  116.99   13.00
   6  -5  -8  166.08   12.90
  -6   5   8  217.68   15.70
  -6   5   8  211.68   11.00
   5  -5  -8  230.58   14.90
  -5   5   8  250.07   15.60
  -5   5   8  232.78   10.00
   4  -5  -8   25.80    6.90
   4  -5  -8   24.70    2.70
   4  -5  -8   25.10    5.60
   4  -5  -8   25.80    5.60
  -4   5   8   35.90    7.10
  -4   5   8   26.40    3.50
  -4   5   8   22.40    2.90
   3  -5  -8   45.30    6.30
   3  -5  -8   44.00    4.80
   3  -5  -8   28.80    5.20
   3  -5  -8   34.00    6.60
  -3   5   8   39.20    7.50
   2  -5  -8  223.08   10.00
   2  -5  -8  213.58    9.60
   2  -5  -8  232.68   12.20
   2  -5  -8  209.68   10.80
  -2   5   8  222.28   13.20
  -2   5   8  227.28   16.30
   1  -5  -8  515.55   17.30
   1  -5  -8  531.05   12.90
   1  -5  -8  549.25   18.60
   1  -5  -8  515.45   16.80
  -1   5   8  537.85   20.40
  -1   5   8  526.95   24.80
  -1   5   8  540.85   20.40
   0  -5  -8  436.26   16.80
   0  -5  -8  447.06   14.90
   0  -5  -8  429.46   15.50
   0   5   8  427.16   18.20
   0   5   8  390.26   17.00
   0   5   8  434.46   22.30
  -1  -5  -8  213.88   10.10
  -1  -5  -8  238.28   10.50
  -1  -5  -8  222.98    7.90
  -1  -5  -8  221.88   12.80
   1   5   8  227.78   12.20
   1   5   8  222.38   15.70
   1   5   8  226.78   13.20
  -2  -5  -8   60.39    7.70
  -2  -5  -8   65.59    6.10
  -2  -5  -8   65.09    6.80
   2   5   8   60.89    7.30
   2   5   8   74.59    8.40
   2   5   8   63.69    9.90
  -3  -5  -8   39.60    5.60
  -3  -5  -8   35.80    5.60
  -3  -5  -8   43.10    6.80
   3   5   8   51.69    7.40
   3   5   8   29.10    7.70
  -4  -5  -8  184.68   10.20
  -4  -5  -8  172.58   10.60
  -4  -5  -8  182.48   15.70
  -4  -5  -8  168.08   11.60
   4   5   8  184.78   12.40
   4   5   8  153.68   14.90
   4   5   8  166.68    7.30
  -5  -5  -8  278.57   16.60
  -5  -5  -8  259.47   13.10
  -5  -5  -8  243.78   15.80
   5   5   8  280.27   16.40
   5   5   8  255.57   11.10
   5   5   8  257.27   19.00
  -6  -5  -8  194.08   12.20
  -6  -5  -8  169.08   14.20
  -6  -5  -8  163.88   24.30
  -6  -5  -8  197.28   12.70
   6   5   8  205.08   14.90
   6   5   8  199.28   10.80
   6   5   8  203.28   17.30
  -7  -5  -8  135.49   13.10
  -7  -5  -8  152.38   15.00
   7   5   8  142.99   13.60
   7   5   8  145.09   15.80
   7   5   8  122.39   12.40
  -8  -5  -8    2.90    5.50
  -8  -5  -8   -1.30    5.00
  -8  -5  -8  -14.00    6.20
   8   5   8    0.20    6.40
   8   5   8    7.20    5.60
   7  -6  -8   86.49   11.10
  -7   6   8   54.39    7.20
   6  -6  -8   55.19    9.80
  -6   6   8   38.40    8.50
   5  -6  -8    5.70    4.60
   5  -6  -8    8.50    5.50
  -5   6   8   20.00    5.80
   4  -6  -8    0.60    3.60
   4  -6  -8    4.20    4.20
  -4   6   8    4.60    4.30
  -4   6   8    1.50    2.20
   3  -6  -8  521.45   14.60
   3  -6  -8  563.74   19.00
   3  -6  -8  509.65   17.30
   3  -6  -8  552.44   18.30
  -3   6   8  574.24   22.10
  -3   6   8  508.65   11.10
   2  -6  -8  117.39    7.20
   2  -6  -8   98.99    6.50
   2  -6  -8  109.29    7.50
  -2   6   8  110.39   10.20
   1  -6  -8  347.37   13.80
   1  -6  -8  318.27   11.40
   1  -6  -8  336.37   12.00
   1  -6  -8  315.27    8.50
  -1   6   8  324.27   15.80
  -1   6   8  328.87   15.70
  -1   6   8  355.66   20.70
   0  -6  -8   92.09    7.70
   0  -6  -8   86.49    5.70
   0   6   8   85.89    8.60
   0   6   8  102.89    9.60
   0   6   8   92.49   12.00
  -1  -6  -8   41.50    4.40
  -1  -6  -8   43.20    4.50
  -1  -6  -8   56.79    5.10
  -1  -6  -8   48.90    6.80
   1   6   8   48.70    6.40
   1   6   8   55.69    7.80
   1   6   8   55.29    9.00
  -2  -6  -8    1.40    3.50
  -2  -6  -8    4.70    2.80
  -2  -6  -8    5.10    2.40
   2   6   8    8.40    4.60
   2   6   8   14.00    5.60
   2   6   8    5.90    3.20
  -3  -6  -8  573.64   16.10
  -3  -6  -8  562.74   16.70
  -3  -6  -8  530.35   21.90
  -3  -6  -8  549.85   19.80
   3   6   8  560.04   21.30
   3   6   8  596.14   24.30
  -4  -6  -8  106.19    7.90
  -4  -6  -8   91.49    9.20
  -4  -6  -8  103.69   10.60
   4   6   8   87.19   11.80
   4   6   8   90.59    9.20
   4   6   8   90.29    4.70
  -5  -6  -8  147.49    8.70
  -5  -6  -8  132.69    9.30
  -5  -6  -8  139.49   12.50
  -5  -6  -8  150.88   13.00
   5   6   8  149.29   11.90
   5   6   8  155.68   15.40
   5   6   8  141.79    8.00
  -6  -6  -8   -2.20    3.50
  -6  -6  -8    5.40    5.20
  -6  -6  -8    4.60    5.40
   6   6   8   -5.10    2.90
   6   6   8    4.80    5.90
   6   6   8    1.20    6.20
  -7  -6  -8   60.09   10.20
  -7  -6  -8   56.89   10.30
  -7  -6  -8   63.99    7.80
   7   6   8   65.89   11.10
   7   6   8   50.99   11.50
  -8  -6  -8    9.90    5.00
  -8  -6  -8    2.30    6.50
  -8  -6  -8    7.30    5.80
   8   6   8   12.80    7.70
   8   6   8   13.20    6.40
   7  -7  -8   29.70    7.70
   6  -7  -8  334.47   17.40
  -6   7   8  340.77   19.20
  -6   7   8  328.07   19.40
   5  -7  -8   26.80    5.70
  -5   7   8   23.20    4.40
  -5   7   8   15.30    6.10
   4  -7  -8   38.10    5.70
   4  -7  -8   17.50    4.90
   4  -7  -8   26.80    4.80
  -4   7   8   24.30    3.80
  -4   7   8   36.20    7.10
   3  -7  -8   34.60    4.50
   3  -7  -8   37.60    4.10
   3  -7  -8   43.60    5.30
   3  -7  -8   50.79    6.30
  -3   7   8   36.30    6.90
  -3   7   8   35.70    3.60
   2  -7  -8  390.76   11.10
   2  -7  -8  395.96   11.40
   2  -7  -8  386.86   14.00
   2  -7  -8  390.66   13.40
  -2   7   8  378.66    9.40
  -2   7   8  383.16   22.40
  -2   7   8  389.16   17.10
   1  -7  -8   46.30    5.90
  -1   7   8   41.70    9.00
  -1   7   8   47.00    7.40
  -1   7   8   58.79    7.50
   0  -7  -8 1042.70   28.90
   0   7   8 1020.70   29.60
   0   7   8 1028.40   29.30
  -1  -7  -8   12.70    3.40
  -1  -7  -8   14.40    5.00
   1   7   8   15.40    5.00
   1   7   8   12.00    4.20
  -2  -7  -8  118.29   10.40
  -2  -7  -8  109.49    8.20
   2   7   8   83.69    8.90
   2   7   8   97.89    8.40
   2   7   8  112.39   15.40
  -3  -7  -8   -2.10    3.50
  -3  -7  -8    3.00    3.90
   3   7   8    4.20    6.20
   3   7   8   -4.60    3.80
   3   7   8    1.30    4.30
  -4  -7  -8  455.25   11.90
  -4  -7  -8  475.75   21.80
  -4  -7  -8  477.95   20.40
  -4  -7  -8  486.65   12.00
   4   7   8  462.35   25.30
   4   7   8  491.75   19.80
   4   7   8  456.65   10.90
  -5  -7  -8   18.10    6.50
  -5  -7  -8   13.30    5.80
  -5  -7  -8   20.10    3.60
   5   7   8   11.40    3.00
   5   7   8   15.90    5.90
   5   7   8   15.40    6.50
  -6  -7  -8  314.17   12.20
  -6  -7  -8  300.67   18.60
  -6  -7  -8  303.77   13.20
  -6  -7  -8  272.27   18.40
   6   7   8  292.17   16.70
   6   7   8  323.67   22.10
   6   7   8  299.97   12.90
  -7  -7  -8   22.10    7.00
  -7  -7  -8   17.80    5.90
  -7  -7  -8    4.40    3.90
   7   7   8    7.30    9.00
   7   7   8    3.50    5.80
  -8  -7  -8   -4.20    4.80
   8   7   8   18.00    7.80
  -7   8   8   12.60    6.40
  -7   8   8    9.70    6.20
   6  -8  -8   51.39    7.50
  -6   8   8   37.50    6.70
  -6   8   8   52.29    8.90
   5  -8  -8    7.70    4.70
   5  -8  -8   18.50    4.60
  -5   8   8    1.40    3.70
  -5   8   8    7.00    4.80
  -5   8   8    5.60    4.60
   4  -8  -8  490.95   13.80
   4  -8  -8  503.05   19.80
  -4   8   8  451.15   15.20
  -4   8   8  486.15   19.60
  -4   8   8  520.55   24.90
   3  -8  -8  135.69    9.90
   3  -8  -8  144.39    7.30
  -3   8   8  139.79    9.00
  -3   8   8  154.88   15.60
  -3   8   8  152.28    7.40
  -3   8   8  155.28   11.50
   2  -8  -8   29.50    4.40
   2  -8  -8   27.20    4.50
  -2   8   8   27.40    3.80
  -2   8   8   33.20    6.00
  -2   8   8   19.20    6.70
   1  -8  -8   34.40    5.40
  -1   8   8   26.80    5.70
  -1   8   8   33.70    8.80
   0  -8  -8  308.27   14.60
   0   8   8  312.07   14.90
   0   8   8  315.67   21.00
   0   8   8  302.67   14.10
  -1  -8  -8   76.69    7.80
  -1  -8  -8   74.99    8.50
   1   8   8   88.59    9.20
   1   8   8   71.69   11.20
   1   8   8   77.79    7.80
  -2  -8  -8  692.63   22.30
  -2  -8  -8  618.34   27.90
   2   8   8  645.54   20.90
   2   8   8  606.24   21.90
   2   8   8  667.03   29.90
  -3  -8  -8  116.49   10.90
  -3  -8  -8  124.99   10.10
   3   8   8  113.39    9.70
   3   8   8  114.19   10.90
   3   8   8  101.09   12.90
  -4  -8  -8   18.00    6.10
  -4  -8  -8   13.40    5.30
   4   8   8   15.50    5.60
   4   8   8   14.00    1.80
   4   8   8   11.30    6.30
  -5  -8  -8   63.29    9.30
   5   8   8   70.19   11.50
   5   8   8   66.29    5.50
   5   8   8   59.19    8.30
  -6  -8  -8   94.09   14.70
  -6  -8  -8  119.09   13.10
   6   8   8   87.49    7.40
   6   8   8   89.39   10.60
   6   8   8   97.89   13.30
  -7  -8  -8   15.90    6.60
  -7  -8  -8   16.00    6.90
   7   8   8   16.80    7.20
   7   8   8   25.10    7.70
  -6   9   8   17.00    6.90
  -6   9   8    3.90    5.80
  -5   9   8  108.19   11.20
  -5   9   8  102.59   11.20
  -4   9   8    1.30    2.80
  -4   9   8    4.40    4.20
   3  -9  -8   12.50    3.10
   3  -9  -8    2.50    4.70
  -3   9   8   11.80    3.00
  -3   9   8   16.60    4.10
  -3   9   8   13.20    4.80
  -3   9   8    2.50    7.00
   2  -9  -8   16.90    3.90
  -2   9   8   13.00    3.30
  -2   9   8   14.70    7.10
  -2   9   8   16.90    3.30
  -2   9   8   23.40    4.80
   1  -9  -8  278.37   13.50
  -1   9   8  285.47   11.30
  -1   9   8  245.38   13.40
  -1   9   8  296.37   14.00
  -1   9   8  274.77    8.40
  -1   9   8  296.17   21.30
   0  -9  -8   33.90    6.20
   0   9   8   34.70    6.20
   0   9   8   46.60    6.60
   0   9   8   33.40    9.40
   0   9   8   35.40    5.10
  -1  -9  -8  141.49   10.60
  -1  -9  -8  153.48   11.90
   1   9   8  153.68   10.70
   1   9   8  125.89   10.60
   1   9   8  135.49   14.00
  -2  -9  -8   -5.60    3.40
  -2  -9  -8    8.60    4.60
   2   9   8    1.70    7.30
   2   9   8    4.70    4.40
   2   9   8    1.90    3.70
  -3  -9  -8   35.10    7.60
  -3  -9  -8   36.80    6.90
   3   9   8   26.00    6.40
   3   9   8   29.80    8.50
   3   9   8   44.40    7.00
  -4  -9  -8   39.00    8.50
  -4  -9  -8   27.10    6.20
   4   9   8   40.10    7.00
   4   9   8   24.60    7.60
  -5  -9  -8  262.07   16.70
  -5  -9  -8  257.67   17.60
   5   9   8  271.57   10.40
   5   9   8  276.77   15.60
   5   9   8  286.37   20.70
  -6  -9  -8   19.90    6.80
  -6  -9  -8   44.10    8.20
   6   9   8   31.90    8.40
   6   9   8   26.50    6.50
  -7  -9  -8   51.39   10.00
   7   9   8   30.50    9.40
   7   9   8   36.20    8.10
  -5  10   8   72.39    9.70
  -5  10   8   79.29    9.90
  -4  10   8  124.99   10.70
  -4  10   8   98.99   16.90
  -4  10   8  108.29   12.20
  -3  10   8  215.18   11.90
  -3  10   8  242.18   13.60
  -3  10   8  212.68   11.10
  -3  10   8  231.08   19.80
   2 -10  -8   15.10    4.10
  -2  10   8   18.80    4.10
  -2  10   8   14.40    4.30
  -2  10   8   12.00    8.00
  -2  10   8   15.50    3.80
   1 -10  -8    3.60    3.60
  -1  10   8    2.30    3.30
  -1  10   8   -5.40    3.10
  -1  10   8    3.20    2.20
  -1  10   8   -1.20    5.50
   0 -10  -8   84.89    9.00
   0  10   8   90.99    8.40
   0  10   8   88.39   12.70
   0  10   8  103.69    8.00
   0  10   8  109.79    9.10
  -1 -10  -8  200.28   12.90
  -1 -10  -8  220.28   13.90
   1  10   8  220.68   12.10
   1  10   8  211.18   17.90
   1  10   8  206.58   13.40
  -2 -10  -8  167.68   12.90
  -2 -10  -8  167.68   13.10
   2  10   8  175.08   10.20
   2  10   8  158.78   10.30
   2  10   8  158.48   16.00
  -3 -10  -8  124.59   11.40
  -3 -10  -8  109.39   11.40
   3  10   8  125.99    9.60
   3  10   8  125.89   15.70
  -4 -10  -8   -2.80    4.10
  -4 -10  -8   -3.20    5.40
   4  10   8   -1.70    1.40
   4  10   8   -7.10    2.90
   4  10   8   -4.10    1.50
   4  10   8   -7.30    4.50
  -5 -10  -8   11.80    6.80
  -5 -10  -8   -2.80    5.00
   5  10   8    0.40    2.60
   5  10   8   -0.60    5.50
   5  10   8    0.50    4.40
  -6 -10  -8  121.49   13.30
   6  10   8   99.79   14.00
   6  10   8   98.29    9.80
  -4  11   8   10.30    5.50
  -4  11   8   11.40    7.60
  -4  11   8   -0.50    4.50
  -3  11   8   28.90    5.30
  -3  11   8   30.70    6.00
  -3  11   8   31.60   10.00
   2 -11  -8  247.78   12.80
  -2  11   8  257.67   13.30
  -2  11   8  232.08   21.10
   1 -11  -8   -0.10    4.20
  -1  11   8   -2.00    5.60
  -1  11   8   12.40    3.90
  -1  11   8    7.50    3.80
  -1  11   8    3.70    2.40
   0 -11  -8  224.58   14.50
   0  11   8  226.18   19.10
   0  11   8  206.78   12.30
   0  11   8  209.88    6.60
   0  11   8  205.48   11.00
   0  11   8  208.78   11.80
  -1 -11  -8   20.00    6.40
  -1 -11  -8   11.90    5.90
   1  11   8   14.70    6.00
   1  11   8   12.60    4.60
   1  11   8    4.60    4.50
  -2 -11  -8   22.60    6.60
  -2 -11  -8   29.30    7.50
   2  11   8   29.90    5.00
   2  11   8   13.70    7.20
   2  11   8   33.40    5.40
  -3 -11  -8   17.10    5.50
  -3 -11  -8    4.00    5.40
   3  11   8   11.30    4.40
   3  11   8   12.20    6.90
  -4 -11  -8  169.08   15.10
  -4 -11  -8  201.48   16.10
   4  11   8  231.18   19.80
   4  11   8  190.68   11.70
  -5 -11  -8    9.80    5.60
  -5 -11  -8   -1.50    4.20
   5  11   8  -15.30    6.40
   5  11   8   -9.30    3.30
  -3  12   8   73.49   13.30
  -3  12   8   73.69    8.50
  -3  12   8   63.19    7.70
   2 -12  -8    8.10    4.70
  -2  12   8    4.20    7.60
  -2  12   8    0.50    3.60
  -2  12   8    2.60    3.40
   1 -12  -8   -2.70    4.20
  -1  12   8   -1.70    3.00
   0 -12  -8   33.10    6.20
   0  12   8   41.10    6.10
   0  12   8   27.20    8.70
  -1 -12  -8   57.09    8.50
   1  12   8   47.80   10.80
   1  12   8   61.89    8.30
  -2 -12  -8  102.69   12.10
  -2 -12  -8   91.99   11.70
   2  12   8   78.79   13.60
   2  12   8   90.39    7.90
  -3 -12  -8  123.89   14.00
  -3 -12  -8  114.79   12.10
   3  12   8   89.19    8.20
   3  12   8   67.89   14.30
   0  -9   9   10.40    6.00
   1  -9   9    1.30    5.20
   3   8  -9    4.10    6.40
  -3  -8   9    3.40    6.00
  -3  -8   9    9.50    6.30
   2   8  -9   27.00    9.30
   2   8  -9   18.60    7.60
   1   8  -9    4.60    4.30
   1   8  -9    4.70    5.70
  -1  -8   9    2.90    4.70
   0   8  -9   57.39    9.80
   0   8  -9   57.69   11.70
   0  -8   9   55.29    8.10
  -1   8  -9   21.40    7.90
  -1   8  -9   14.50    9.50
   1  -8   9   16.50    5.30
  -2   8  -9  200.48   19.00
  -2   8  -9  232.78   17.80
  -3   8  -9    7.80    6.80
   3  -8   9   10.20    5.50
  -4   8  -9   29.10    9.80
  -4   8  -9   21.40   10.00
   4   7  -9    1.90    6.70
  -4  -7   9   13.60    6.00
  -4  -7   9   -8.00    6.50
   3   7  -9   11.60    8.20
  -3  -7   9    1.90    4.90
  -3  -7   9    6.60    6.30
   2   7  -9  265.37   20.40
  -2  -7   9  219.08   14.80
   1   7  -9  -11.80    4.90
   1   7  -9   11.70    7.10
   0   7  -9  192.38   17.00
   0   7  -9  184.38   17.50
  -1   7  -9    4.80    6.20
  -1   7  -9   23.00    8.20
  -2   7  -9    2.90    2.90
  -2   7  -9    0.50    6.20
  -2   7  -9   11.20    6.40
   2  -7   9   -2.70    5.10
  -3   7  -9    3.60    5.90
  -3   7  -9    0.90    6.10
   3  -7   9   -4.10    5.20
  -4   7  -9  163.98   17.20
   4  -7   9  191.68   14.10
  -5   7  -9  -15.30    5.50
  -5   7  -9    0.80    5.30
   5  -7   9  -10.50    5.40
   5   6  -9  109.29   12.90
  -5  -6   9   81.29   11.30
  -5  -6   9   80.29   10.90
   4   6  -9    0.00    8.10
  -4  -6   9    6.10    7.20
  -4  -6   9    8.70    6.20
   3   6  -9  113.29   13.80
  -3  -6   9  122.99   12.20
  -3  -6   9   83.39   12.50
   2   6  -9   -8.70    4.90
  -2  -6   9  -14.00    4.70
  -2  -6   9   -2.30    5.10
   1   6  -9   14.80    6.80
   1   6  -9   11.90    7.10
  -1  -6   9   18.60    6.90
   0   6  -9   32.10    8.10
   0   6  -9   30.40    8.10
   0  -6   9   32.70    8.60
  -1   6  -9  127.19   13.10
  -1   6  -9  109.99   13.40
   1  -6   9  114.59    7.20
   1  -6   9  107.29   10.70
  -2   6  -9   40.40   10.40
  -2   6  -9   20.80    4.60
  -2   6  -9   39.20    9.00
   2  -6   9   30.30    6.80
  -3   6  -9   21.90    5.10
  -3   6  -9   26.10    8.10
  -3   6  -9   32.30    8.50
   3  -6   9   36.50    6.80
   3  -6   9   40.90    8.40
  -4   6  -9   -8.00    5.10
  -4   6  -9    2.40    7.20
   4  -6   9    4.70    5.80
   4  -6   9    5.90    4.90
   5  -6   9   -1.60    4.30
   5  -6   9    7.70    7.10
  -6   6  -9   20.80   10.00
  -6   6  -9    7.50    6.50
   6  -6   9    0.10    5.70
   6   5  -9   50.49   10.30
  -6  -5   9   60.59   11.20
  -6  -5   9   49.99    8.70
   5   5  -9   10.60    9.40
  -5  -5   9   -5.30    4.10
  -5  -5   9    1.70    5.60
   4   5  -9   16.70    7.20
  -4  -5   9    8.50    8.50
  -4  -5   9    2.20    2.40
  -4  -5   9   10.10    7.20
   3   5  -9  163.88   15.70
  -3  -5   9  154.48    5.90
  -3  -5   9  163.48   13.70
  -3  -5   9  172.28   14.60
  -3  -5   9  155.08    6.40
   2   5  -9  164.18   15.10
  -2  -5   9  176.58   13.50
  -2  -5   9  159.78    5.80
  -2  -5   9  140.89   17.10
   1   5  -9  242.28   19.10
   1   5  -9  287.77   18.80
  -1  -5   9  261.07   16.70
  -1  -5   9  257.87    8.90
   0   5  -9   93.19   11.60
   0   5  -9   71.39   11.00
   0  -5   9  100.29   13.40
   0  -5   9   93.19    6.40
  -1   5  -9    5.60    6.00
  -1   5  -9    2.00    5.10
   1  -5   9    3.40    5.30
   1  -5   9   -2.10    3.00
  -2   5  -9   19.30    8.10
  -2   5  -9   29.90    5.50
  -2   5  -9   43.50    8.50
   2  -5   9   36.10    7.50
   2  -5   9   21.30    4.90
  -3   5  -9  182.58   12.30
  -3   5  -9  195.28   15.80
  -3   5  -9  206.48   17.40
   3  -5   9  210.88   13.40
   3  -5   9  207.18   15.20
  -4   5  -9  163.08   15.20
  -4   5  -9  146.69   15.80
   4  -5   9  158.68   13.60
   4  -5   9  173.98   14.30
  -5   5  -9  141.79   14.70
  -5   5  -9  127.99   15.10
   5  -5   9   98.99   12.90
   5  -5   9  116.79   12.50
  -6   5  -9   31.30    8.70
  -6   5  -9   23.40    8.30
   6  -5   9   19.90    8.20
   6  -5   9   21.60    6.70
  -7   5  -9   -1.60    6.10
   7  -5   9    3.50    5.90
   7  -5   9   -0.30    6.00
   6   4  -9  150.08   15.00
  -6  -4   9  121.49   12.80
  -6  -4   9  106.69   10.90
  -6  -4   9  124.79   14.80
   5   4  -9   45.20    9.50
  -5  -4   9   39.60    6.70
  -5  -4   9   41.90    8.30
  -5  -4   9   38.30    6.00
  -5  -4   9   45.00    9.50
   4   4  -9  266.57   18.50
  -4  -4   9  216.88   11.50
  -4  -4   9  244.68   11.80
  -4  -4   9  248.78   20.70
  -4  -4   9  215.38   15.80
   3   4  -9   75.29   11.80
  -3  -4   9   41.50    8.10
  -3  -4   9   50.99    5.80
  -3  -4   9   46.40    8.40
   2   4  -9   -0.70    6.60
  -2  -4   9    0.30    5.70
  -2  -4   9    5.60    3.00
  -2  -4   9    1.20    4.60
   1   4  -9   -3.80    4.30
   1   4  -9    3.70    5.40
  -1  -4   9    7.10    6.80
  -1  -4   9    3.40    2.70
   0   4  -9  396.56   24.80
   0   4  -9  374.16   20.70
   0  -4   9  358.46   14.10
  -1   4  -9   43.50    8.90
  -1   4  -9   43.30    5.70
  -2   4  -9  457.45   19.30
  -2   4  -9  468.65   28.60
  -2   4  -9  506.25   24.50
   2  -4   9  481.45   22.00
   2  -4   9  479.65   19.00
  -3   4  -9   13.90    7.00
  -3   4  -9    9.30    6.10
  -3   4  -9   10.20    4.60
   3  -4   9    2.70    5.30
   3  -4   9    6.70    4.50
  -4   4  -9   33.20    8.10
  -4   4  -9   25.70    8.00
   4  -4   9   20.40    5.90
   4  -4   9   28.50    8.10
  -5   4  -9   20.20    8.30
  -5   4  -9   23.90    7.30
   5  -4   9   18.10    6.40
   5  -4   9   22.70    6.70
  -6   4  -9  177.98   18.70
  -6   4  -9  181.98   17.50
   6  -4   9  160.78   14.50
   6  -4   9  175.28   16.70
  -7   4  -9   12.20    6.80
   7  -4   9   27.50    7.90
   7  -4   9   21.80    7.30
  -7  -3   9   21.80    8.50
  -7  -3   9   38.40    8.20
   6   3  -9   27.60    7.20
  -6  -3   9   18.80    7.50
  -6  -3   9   17.40    6.00
   5   3  -9    6.70    5.30
  -5  -3   9    0.50    5.30
  -5  -3   9   -1.60    5.00
  -5  -3   9   -0.70    4.40
  -5  -3   9  -12.90    4.40
   4   3  -9   44.90    8.70
  -4  -3   9   59.69    8.80
  -4  -3   9   46.40    9.20
  -4  -3   9   51.69    7.30
   3   3  -9   85.69   12.80
  -3  -3   9   80.69    9.90
  -3  -3   9   75.29   10.00
   2   3  -9  120.69   12.80
   2   3  -9  115.69   10.30
  -2  -3   9  104.19   10.90
  -2  -3   9  103.59   11.10
  -2  -3   9  126.69    8.80
   1   3  -9   51.39    7.60
   1   3  -9   71.69   10.40
  -1  -3   9   63.79    7.00
   0   3  -9    3.40    5.60
   0   3  -9   -3.80    5.10
   0   3  -9    3.40    4.20
   0  -3   9    3.20    3.80
   0  -3   9   -4.40    3.70
  -1   3  -9   13.90    4.20
  -1   3  -9   18.30    5.10
  -1   3  -9   25.50    7.20
  -1   3  -9   20.10    6.50
   1  -3   9    8.80    4.00
   1  -3   9   18.10    7.00
  -2   3  -9   48.00    8.20
  -2   3  -9   57.49    9.70
   2  -3   9   39.70    9.30
   2  -3   9   52.19    7.40
  -3   3  -9   28.30    7.30
  -3   3  -9   22.90    7.20
  -3   3  -9   24.30    5.50
   3  -3   9   15.60    5.20
   3  -3   9   29.10    7.30
  -4   3  -9   90.39   12.40
  -4   3  -9   75.39   12.20
   4  -3   9  111.99   11.60
   4  -3   9   97.09   10.90
  -5   3  -9   79.29   11.90
  -5   3  -9   78.49   10.90
   5  -3   9   89.29   11.30
   5  -3   9   76.59   10.80
  -6   3  -9   -1.80    4.80
  -6   3  -9   12.00    6.50
   6  -3   9    3.50    6.70
   6  -3   9    1.10    5.50
  -7   3  -9   -3.70    5.70
  -7   3  -9    4.90    5.60
   7  -3   9    0.40    6.00
  -8   3  -9    9.80    7.00
   8  -3   9   19.00    7.60
   8  -3   9   23.00    7.40
   7   2  -9   81.49   12.90
  -7  -2   9   56.39    8.80
  -7  -2   9   64.79   11.00
  -6  -2   9  -10.30    5.70
   5   2  -9  339.67   20.30
  -5  -2   9  332.67   21.50
  -5  -2   9  312.07   17.00
   4   2  -9   23.80    7.20
  -4  -2   9   20.20    5.60
  -4  -2   9   22.30    5.60
  -4  -2   9   21.60    8.30
   3   2  -9  105.79    9.60
   3   2  -9  135.09   14.60
  -3  -2   9  108.69   12.20
  -3  -2   9  106.99    9.90
  -3  -2   9   96.39    9.90
   2   2  -9   -1.80    3.90
   2   2  -9   -0.70    6.30
  -2  -2   9   -2.90    3.80
  -2  -2   9    7.60    5.60
  -2  -2   9   -2.00    3.30
   1   2  -9  188.58   11.80
  -1  -2   9  217.18   14.40
  -1  -2   9  200.68   11.70
   0   2  -9    4.80    4.60
   0   2  -9    6.90    4.00
   0   2  -9   14.20    6.40
   0  -2   9    3.50    3.80
   0  -2   9    2.00    5.40
  -1   2  -9  581.84   22.10
  -1   2  -9  645.64   26.80
  -1   2  -9  634.54   25.00
   1  -2   9  637.04   25.10
   1  -2   9  595.24   22.10
  -2   2  -9    8.60    4.70
  -2   2  -9   -0.90    4.60
  -2   2  -9   12.50    5.10
   2  -2   9   11.50    4.50
   2  -2   9   10.20    7.20
  -3   2  -9   21.20    6.70
  -3   2  -9    1.60    4.20
   3  -2   9    1.80    5.00
   3  -2   9    5.80    4.90
  -4   2  -9    6.80    5.40
  -4   2  -9    3.90    5.80
   4  -2   9   11.10    4.80
   4  -2   9    5.90    5.00
  -5   2  -9  381.46   21.40
   5  -2   9  368.26   20.00
   5  -2   9  351.06   21.20
  -6   2  -9   -5.90    4.40
  -6   2  -9    3.10    5.20
   6  -2   9   -3.50    6.20
   6  -2   9    1.90    5.70
  -7   2  -9  221.48   17.20
   7  -2   9  250.67   21.40
   7  -2   9  212.48   18.20
  -8   2  -9   -8.70    6.40
  -8   2  -9   -0.50    5.40
  -8   2  -9    6.00    5.90
   8  -2   9   -6.50    5.80
   8  -2   9   -4.10    4.50
   7   1  -9   70.19   11.10
  -7  -1   9   54.79    8.70
  -7  -1   9   67.09   12.00
   6   1  -9    2.90    5.30
  -6  -1   9   -4.60    6.70
  -6  -1   9    6.50    4.10
   5   1  -9  106.59   11.90
  -5  -1   9  104.79   13.20
  -5  -1   9   93.09    9.60
   4   1  -9   61.69    9.90
  -4  -1   9   74.09    8.10
  -4  -1   9   73.99   11.20
  -4  -1   9   48.60    7.70
   3   1  -9  567.74   19.80
   3   1  -9  616.04   26.60
  -3  -1   9  610.74   23.60
  -3  -1   9  598.54   26.10
  -3  -1   9  620.34   21.10
   2   1  -9  176.88   10.30
  -2  -1   9  181.08   12.20
   1   1  -9  157.58   12.60
   1   1  -9  152.68    9.30
  -1  -1   9  161.78   11.10
  -1  -1   9  146.29   12.30
   0   1  -9   31.20    7.40
   0   1  -9   32.50    5.20
   0   1  -9   29.70    6.20
   0  -1   9   41.10    6.40
   0  -1   9   29.40    7.40
  -1   1  -9  669.23   28.70
  -1   1  -9  668.03   26.40
  -1   1  -9  712.03   24.90
  -1   1  -9  646.54   21.60
   1  -1   9  670.03   25.70
   1  -1   9  704.63   25.00
  -2   1  -9  173.98   12.30
  -2   1  -9  183.88   12.90
  -2   1  -9  189.28   14.50
  -2   1  -9  191.78   12.40
   2  -1   9  185.18   13.40
   2  -1   9  198.18   14.20
  -3   1  -9  559.64   22.30
   3  -1   9  599.74   24.50
  -4   1  -9  160.68   12.40
  -4   1  -9  187.08   14.00
   4  -1   9  157.08   13.30
   4  -1   9  154.28   13.80
  -5   1  -9   14.50    6.30
  -5   1  -9   21.10    6.80
   5  -1   9   23.80    6.70
   5  -1   9   18.80    6.30
  -6   1  -9   -0.10    5.80
  -6   1  -9    8.80    5.70
   6  -1   9    7.80    6.10
   6  -1   9   10.90    6.30
  -7   1  -9  190.98   15.50
  -7   1  -9  197.48   17.30
   7  -1   9  188.28   15.60
   7  -1   9  194.28   17.70
  -8   1  -9   43.30    8.90
  -8   1  -9   36.50    8.90
   8  -1   9   59.79   11.50
   8  -1   9   48.80    9.90
   7   0  -9   -5.40    6.20
  -7   0   9   -2.60    5.00
  -7   0   9    4.50    4.10
   6   0  -9  169.68   10.60
   6   0  -9  186.78   16.40
  -6   0   9  160.18   11.60
  -6   0   9  179.48   15.80
   5   0  -9    0.70    3.60
   5   0  -9   -7.60    4.30
  -5   0   9    3.30    4.20
  -5   0   9    9.00    5.90
   4   0  -9   73.89   11.00
   4   0  -9   61.39    7.10
  -4   0   9   60.89    8.10
  -4   0   9   51.89    7.90
  -4   0   9   54.39    9.20
   3   0  -9    4.60    5.50
  -3   0   9   10.10    4.70
  -3   0   9    8.30    5.60
  -3   0   9   -2.30    3.20
   2   0  -9  339.67   12.80
   2   0  -9  340.87   18.80
  -2   0   9  379.96   19.50
  -2   0   9  341.57   17.30
   1   0  -9    5.90    4.80
   1   0  -9    1.00    2.60
  -1   0   9    4.00    4.60
  -1   0   9    2.90    4.10
   0   0  -9  401.36   19.10
   0   0  -9  377.26   13.40
   0   0  -9  398.06   16.90
   0   0   9  377.46   18.00
   0   0   9  369.06   18.30
  -1   0  -9    6.70    3.30
  -1   0  -9    7.80    3.40
  -1   0  -9   10.50    4.70
  -1   0  -9    9.40    5.50
   1   0   9    4.00    4.00
   1   0   9    8.60    5.60
  -2   0  -9  270.37   13.90
  -2   0  -9  253.67   16.70
  -2   0  -9  264.37   16.00
  -2   0  -9  281.87   13.80
   2   0   9  262.27   15.90
   2   0   9  285.17   16.60
  -3   0  -9    0.20    4.70
  -3   0  -9    5.10    4.20
   3   0   9    1.50    4.30
   3   0   9    6.70    4.90
  -4   0  -9  177.68   12.00
  -4   0  -9  188.48   15.10
   4   0   9  163.18   14.30
   4   0   9  170.38   11.60
   4   0   9  164.48   13.50
  -5   0  -9    6.10    4.70
  -5   0  -9    6.60    4.20
   5   0   9   -1.30    5.70
   5   0   9   -1.50    5.80
  -6   0  -9  238.88   16.40
  -6   0  -9  270.47   17.70
   6   0   9  210.08   18.00
   6   0   9  229.58   16.80
  -7   0  -9    3.30    6.90
  -7   0  -9   -0.20    5.90
  -7   0  -9    4.70    5.80
   7   0   9   -1.00    5.50
  -8   0  -9   51.19    9.60
  -8   0  -9   40.20    9.70
   8   0   9   59.69   11.20
   8   0   9   32.40   10.20
  -8   1   9   24.50    6.10
   7  -1  -9   28.60    9.80
  -7   1   9   35.20    8.70
  -7   1   9   24.50    5.30
   6  -1  -9   -0.50    3.20
   6  -1  -9    2.90    5.90
  -6   1   9    3.40    4.80
  -6   1   9    3.90    3.50
   5  -1  -9  230.68   16.70
   5  -1  -9  187.78   10.90
  -5   1   9  191.28   15.70
  -5   1   9  199.98   10.90
   4  -1  -9   96.99   11.20
  -4   1   9  105.99   11.60
  -4   1   9   77.89    6.70
   3  -1  -9  657.83   24.10
  -3   1   9  671.03   18.20
  -3   1   9  724.73   27.80
  -3   1   9  677.83   28.50
   2  -1  -9   93.79   10.30
  -2   1   9   88.39   10.20
  -2   1   9   91.39   11.40
   1  -1  -9   39.10    7.30
   1  -1  -9   42.40    4.10
  -1   1   9   46.00    8.30
  -1   1   9   32.20    6.60
   0  -1  -9   26.80    7.20
   0  -1  -9   17.60    4.40
   0  -1  -9   24.20    3.30
   0   1   9   31.00    7.30
   0   1   9   21.00    5.70
  -1  -1  -9  748.83   26.90
  -1  -1  -9  764.92   20.80
  -1  -1  -9  751.12   27.40
  -1  -1  -9  757.72   22.80
   1   1   9  783.32   28.10
   1   1   9  765.22   27.50
  -2  -1  -9  388.26   15.10
  -2  -1  -9  402.26   19.10
   2   1   9  370.06   19.30
   2   1   9  406.66   20.00
  -3  -1  -9  410.06   19.50
   3   1   9  399.66   19.80
   3   1   9  409.16   21.20
  -4  -1  -9   66.79   11.20
  -4  -1  -9   66.39    7.60
   4   1   9   63.39    7.50
   4   1   9   84.29   11.20
   4   1   9   67.69   10.00
  -5  -1  -9    8.50    6.10
  -5  -1  -9   14.10    5.00
   5   1   9   14.20    6.20
   5   1   9    8.10    6.00
   5   1   9    4.30    3.10
  -6  -1  -9   11.30    6.30
  -6  -1  -9   11.30    6.80
  -6  -1  -9   11.60    5.50
   6   1   9   14.70    7.10
   6   1   9   16.50    6.50
  -7  -1  -9  263.67   27.40
  -7  -1  -9  273.07   17.30
  -7  -1  -9  221.78   18.30
   7   1   9  248.38   21.60
   7   1   9  281.27   18.90
  -8  -1  -9   77.69   11.30
   8   1   9   69.49   12.00
   8   1   9   66.79   12.00
   8  -2  -9   -1.00    5.50
  -8   2   9    6.30    5.90
  -7   2   9  232.28   18.10
  -7   2   9  244.18   13.70
   6  -2  -9    1.20    3.00
   6  -2  -9    2.40    5.00
  -6   2   9    5.40    3.60
  -6   2   9    6.00    5.20
   5  -2  -9  262.37   11.30
   5  -2  -9  260.87   17.00
  -5   2   9  268.77   17.70
  -5   2   9  260.57   11.10
   4  -2  -9    8.50    5.30
  -4   2   9    2.80    2.60
  -4   2   9    5.20    6.50
   3  -2  -9   44.40    8.90
   3  -2  -9   28.30    5.50
  -3   2   9   43.30    8.20
   2  -2  -9  117.99   12.00
   2  -2  -9  119.89    9.20
  -2   2   9  115.59   12.10
  -2   2   9  139.09   12.20
   1  -2  -9 1055.69   32.20
  -1   2   9 1033.30   33.60
  -1   2   9 1025.40   33.20
   0  -2  -9   -2.10    1.20
   0  -2  -9   -2.30    2.30
   0  -2  -9    1.50    4.40
   0  -2  -9    0.90    4.30
   0   2   9    1.60    4.10
   0   2   9   -5.70    5.00
  -1  -2  -9  320.17   17.20
  -1  -2  -9  271.67   14.80
  -1  -2  -9  291.37   11.50
  -1  -2  -9  298.47   10.50
   1   2   9  311.17   17.30
   1   2   9  289.97   16.60
  -2  -2  -9   34.40    7.10
  -2  -2  -9   50.79    5.40
  -2  -2  -9   56.29    7.60
   2   2   9   37.10    7.50
   2   2   9   44.00    7.90
  -3  -2  -9  216.08   13.50
  -3  -2  -9  198.78    9.80
   3   2   9  200.98   14.40
   3   2   9  189.58   15.30
  -4  -2  -9    5.70    4.20
  -4  -2  -9    8.90    5.60
   4   2   9    3.80    3.40
  -5  -2  -9  635.04   25.30
  -5  -2  -9  611.74   26.30
  -5  -2  -9  642.54   22.00
   5   2   9  628.24   29.20
   5   2   9  627.84   21.50
   5   2   9  631.94   26.60
  -6  -2  -9    9.90    4.80
  -6  -2  -9    1.00    5.90
  -6  -2  -9   -3.60    5.90
   6   2   9    1.30    5.20
   6   2   9   -3.40    4.90
   6   2   9    2.90    4.00
  -7  -2  -9   74.89   10.20
  -7  -2  -9   64.69    9.20
  -7  -2  -9   60.29   10.10
   7   2   9   62.99   10.80
   7   2   9   44.50    9.60
  -8  -2  -9    8.50    6.40
  -8  -2  -9   18.10    7.20
  -8  -2  -9    9.10    6.00
   8   2   9   16.90    7.20
   8   2   9    9.10    7.00
   7  -3  -9    4.00    5.50
  -7   3   9    0.60    6.40
  -7   3   9   -3.10    3.70
   6  -3  -9   11.90    6.00
   6  -3  -9    0.20    2.20
  -6   3   9    6.30    6.00
   5  -3  -9   82.69   11.20
   5  -3  -9   68.29    5.50
  -5   3   9   76.69   10.40
  -5   3   9   71.69    5.90
   4  -3  -9  173.18   12.50
   4  -3  -9  157.38   16.40
  -4   3   9  215.28   15.60
  -4   3   9  185.68    6.90
   3  -3  -9   82.79    8.50
   3  -3  -9  105.99   11.50
  -3   3   9   88.29   11.20
   2  -3  -9   47.70    8.20
   2  -3  -9   30.80    5.40
   2  -3  -9   41.90    7.50
  -2   3   9   40.90    7.90
  -2   3   9   34.80    8.40
   1  -3  -9    5.50    3.10
   1  -3  -9   11.90    4.40
   1  -3  -9    2.10    5.10
  -1   3   9   11.80    5.30
  -1   3   9   15.70    6.10
   0  -3  -9   53.49    4.80
   0  -3  -9   45.30    7.20
   0  -3  -9   41.60    4.40
   0  -3  -9   51.29    6.90
   0   3   9   41.10    7.40
   0   3   9   34.50    7.90
  -1  -3  -9   60.59    4.40
  -1  -3  -9   74.39    7.90
  -1  -3  -9   50.89    4.10
  -1  -3  -9   60.69    4.10
  -1  -3  -9   64.29    7.80
   1   3   9   60.79    9.00
   1   3   9   67.39    8.90
  -2  -3  -9  411.16   18.00
  -2  -3  -9  447.06   18.50
  -2  -3  -9  418.46   11.80
   2   3   9  429.06   19.70
   2   3   9  433.16   21.50
  -3  -3  -9   61.39    8.20
  -3  -3  -9   54.79    7.80
  -3  -3  -9   59.09    5.30
  -3  -3  -9   48.60    8.50
   3   3   9   55.69    9.60
   3   3   9   72.69    9.50
  -4  -3  -9   64.89    6.70
  -4  -3  -9   74.79    9.90
  -4  -3  -9   77.59    9.60
   4   3   9   61.89   10.00
   4   3   9   83.39   12.20
   4   3   9   65.09    6.10
  -5  -3  -9   -6.60    5.20
  -5  -3  -9   -4.70    3.80
  -5  -3  -9    1.60    3.80
   5   3   9   -1.40    2.70
   5   3   9    2.90    5.10
   5   3   9    4.50    6.00
  -6  -3  -9   75.69    8.70
  -6  -3  -9   56.39    9.30
  -6  -3  -9   58.29    9.00
   6   3   9   62.69   10.90
   6   3   9   67.09   10.70
   6   3   9   56.69    7.00
  -7  -3  -9   61.19    8.50
  -7  -3  -9   68.09    9.50
  -7  -3  -9   61.89   10.00
   7   3   9   69.19   12.00
   7   3   9   56.89   10.20
  -8  -3  -9  119.09   12.10
  -8  -3  -9  109.39   12.80
  -8  -3  -9  136.69   13.20
   8   3   9  124.59   14.20
   8   3   9  100.59   14.90
   7  -4  -9   62.29    9.90
  -7   4   9   66.49   10.80
  -7   4   9   67.69    7.40
  -6   4   9  281.17   18.50
   5  -4  -9   16.50    2.50
   5  -4  -9   18.10    2.60
   5  -4  -9   24.50    6.30
  -5   4   9   13.40    5.50
  -5   4   9   15.40    3.10
   4  -4  -9    2.60    4.30
   4  -4  -9    2.70    2.60
   4  -4  -9    1.10    5.80
  -4   4   9    3.30    4.40
   3  -4  -9  134.49   11.50
   3  -4  -9  141.79    9.90
  -3   4   9  171.18   18.90
  -3   4   9  119.79   12.00
   2  -4  -9  703.53   20.60
   2  -4  -9  723.33   24.80
   2  -4  -9  708.53   24.00
  -2   4   9  699.53   25.90
  -2   4   9  748.03   30.50
   1  -4  -9  360.76   11.50
   1  -4  -9  354.36   18.70
   1  -4  -9  372.66   16.90
  -1   4   9  344.87   20.10
  -1   4   9  364.16   18.30
   0  -4  -9  539.65   20.00
   0  -4  -9  549.35   20.10
   0  -4  -9  525.15   11.40
   0  -4  -9  512.95   20.10
   0   4   9  511.85   21.60
   0   4   9  511.15   23.80
  -1  -4  -9   17.00    4.70
  -1  -4  -9   11.30    1.80
  -1  -4  -9    8.20    4.20
  -1  -4  -9    9.30    4.10
   1   4   9   15.30    6.00
   1   4   9   11.70    5.10
  -2  -4  -9   40.90    6.30
  -2  -4  -9   46.90    5.50
  -2  -4  -9   45.00    7.20
   2   4   9   40.70    7.70
   2   4   9   40.10    8.20
  -3  -4  -9   92.59    8.90
  -3  -4  -9   73.49    7.80
  -3  -4  -9   80.39    8.00
  -3  -4  -9   94.69   10.40
  -3  -4  -9   80.29    4.30
   3   4   9   81.69    9.70
  -4  -4  -9  532.35   21.10
  -4  -4  -9  515.85   20.50
  -4  -4  -9  521.25   20.30
  -4  -4  -9  524.55   23.10
  -4  -4  -9  541.85   15.70
   4   4   9  570.84   24.30
   4   4   9  523.75   26.00
  -5  -4  -9  265.17   12.50
  -5  -4  -9  261.37   16.70
  -5  -4  -9  252.67   16.00
  -5  -4  -9  272.07   14.60
   5   4   9  260.77   11.40
   5   4   9  238.58   15.90
   5   4   9  276.97   20.40
  -6  -4  -9  106.79   11.70
  -6  -4  -9  116.99   11.80
  -6  -4  -9  106.09    9.90
   6   4   9  101.29   11.70
   6   4   9  106.99    8.30
   6   4   9  112.89   14.40
  -7  -4  -9    5.00    4.40
  -7  -4  -9    0.10    6.00
  -7  -4  -9    1.60    5.30
  -7  -4  -9  -12.10    4.90
   7   4   9    1.50    6.50
   7   4   9    1.20    6.90
  -8  -4  -9   24.80    9.50
  -8  -4  -9   42.80    8.10
  -8  -4  -9   30.30    7.90
   8   4   9   20.90    8.20
   8   4   9   11.60    7.30
   7  -5  -9   16.70    7.40
  -7   5   9   10.00    3.80
  -7   5   9   15.90    8.20
   6  -5  -9   58.19   10.30
  -6   5   9   53.59   10.10
   5  -5  -9  232.38   16.40
  -5   5   9  239.88   16.50
  -5   5   9  234.18    8.60
   4  -5  -9  172.98   11.90
   4  -5  -9  176.28    7.40
   4  -5  -9  192.58   13.70
  -4   5   9  203.98   14.00
   3  -5  -9  290.37   15.10
   3  -5  -9  275.07   14.00
   3  -5  -9  267.27   12.90
   3  -5  -9  284.87   11.40
  -3   5   9  313.77   16.90
  -3   5   9  286.37   19.20
   2  -5  -9   -1.30    4.00
   2  -5  -9    3.30    2.60
   2  -5  -9    2.70    4.60
   2  -5  -9   -3.00    2.80
  -2   5   9   -4.30    7.40
  -2   5   9   -0.20    3.60
   1  -5  -9   36.10    6.30
   1  -5  -9   51.19    6.80
   1  -5  -9   43.10    6.20
   1  -5  -9   38.30    3.30
  -1   5   9   29.50    7.20
  -1   5   9   36.20    8.00
   0  -5  -9  227.48   11.70
   0  -5  -9  237.78   12.10
   0  -5  -9  232.38   12.70
   0   5   9  243.18   17.20
   0   5   9  236.38   14.90
  -1  -5  -9  782.12   26.20
  -1  -5  -9  802.52   23.50
  -1  -5  -9  788.52   16.70
  -1  -5  -9  791.82   23.40
   1   5   9  805.72   31.20
   1   5   9  805.72   27.30
  -2  -5  -9  137.59   11.00
  -2  -5  -9  112.29    8.70
  -2  -5  -9  103.09    7.00
  -2  -5  -9  125.39    9.20
   2   5   9  102.49   11.10
  -3  -5  -9  143.69    9.60
  -3  -5  -9  133.89    9.60
   3   5   9  142.99   12.20
   3   5   9  147.79   14.70
  -4  -5  -9   -5.20    3.40
  -4  -5  -9   -3.90    5.10
  -4  -5  -9   -2.40    3.90
   4   5   9    8.70    5.20
   4   5   9   14.10    6.60
  -5  -5  -9   76.69    8.00
  -5  -5  -9   61.99    9.60
  -5  -5  -9   77.09    8.90
  -5  -5  -9   80.99    9.60
   5   5   9   68.69    5.90
   5   5   9   73.59   10.30
   5   5   9   57.09   11.10
  -6  -5  -9  102.09    9.20
  -6  -5  -9  116.39   12.50
  -6  -5  -9  125.99   12.90
   6   5   9   93.89   12.10
   6   5   9  107.69    8.30
   6   5   9  116.79   14.50
  -7  -5  -9  171.58   16.70
  -7  -5  -9  207.58   13.90
   7   5   9  149.69   14.50
  -8  -5  -9   31.40    7.80
  -8  -5  -9   29.30    7.10
  -8  -5  -9   25.80    7.90
   8   5   9   26.40    8.50
   8   5   9   26.20    9.10
   7  -6  -9   68.39   10.10
  -7   6   9   65.69    7.10
  -7   6   9   48.50    9.40
   6  -6  -9   30.00    8.20
  -6   6   9   44.30    8.30
  -6   6   9   29.70    5.20
   5  -6  -9   18.20    6.20
  -5   6   9    7.00    5.50
  -5   6   9   14.20    2.80
   4  -6  -9   11.60    4.50
   4  -6  -9   15.50    5.30
   4  -6  -9   11.30    2.20
   4  -6  -9    2.90    4.20
  -4   6   9    7.70    4.70
   3  -6  -9   70.29    7.10
   3  -6  -9   78.19    9.00
   3  -6  -9   72.39    7.00
   3  -6  -9   74.09    5.70
  -3   6   9   58.79   10.40
  -3   6   9   85.79   10.30
   2  -6  -9    5.80    3.40
   2  -6  -9   11.90    4.60
   2  -6  -9   10.10    3.70
   2  -6  -9    5.00    2.70
  -2   6   9   27.40    6.20
  -2   6   9   11.70    5.80
   1  -6  -9  218.68   10.20
   1  -6  -9  217.08   12.30
   1  -6  -9  215.38   11.80
  -1   6   9  189.28   13.00
  -1   6   9  206.88   16.90
   0  -6  -9   34.10    5.10
   0  -6  -9   32.70    6.10
   0  -6  -9   25.20    4.00
   0   6   9   26.60    6.10
   0   6   9   20.70    6.70
  -1  -6  -9    4.40    2.20
  -1  -6  -9   10.70    3.50
  -1  -6  -9    3.90    4.50
  -1  -6  -9    7.70    3.40
   1   6   9    5.90    4.80
   1   6   9    4.40    5.30
  -2  -6  -9    9.30    3.30
  -2  -6  -9    3.10    4.40
  -2  -6  -9    9.00    4.00
  -2  -6  -9    8.90    3.20
   2   6   9    1.50    4.30
   2   6   9   14.40    6.80
  -3  -6  -9  156.78   12.90
  -3  -6  -9  139.89   10.10
  -3  -6  -9  135.49    9.60
  -3  -6  -9  135.89    8.80
   3   6   9  143.29   11.50
   3   6   9   98.19   13.10
  -4  -6  -9   16.30    4.80
  -4  -6  -9    7.30    4.50
  -4  -6  -9   15.30    4.10
  -4  -6  -9    9.30    4.90
   4   6   9   17.00    5.80
   4   6   9    3.70    6.10
  -5  -6  -9  243.08   12.30
  -5  -6  -9  224.88   12.70
  -5  -6  -9  241.28   15.30
  -5  -6  -9  218.18   15.90
   5   6   9  256.67   19.80
   5   6   9  270.87   16.50
  -6  -6  -9   16.60    4.70
  -6  -6  -9   11.90    5.70
  -6  -6  -9   11.70    6.10
  -6  -6  -9   23.90    5.90
   6   6   9   10.90    3.30
   6   6   9   13.30    7.30
   6   6   9   16.40    6.20
  -7  -6  -9   -7.80    4.70
  -7  -6  -9   11.80    4.80
  -7  -6  -9   -1.90    5.00
   7   6   9    9.40    6.90
   7   6   9   -3.70    5.10
  -8  -6  -9   -4.70    8.00
  -8  -6  -9   12.40    5.10
   8   6   9   -0.20    5.70
  -6   7   9  215.58   17.00
   5  -7  -9    6.40    4.40
   5  -7  -9   -0.50    4.80
  -5   7   9   12.30    6.20
  -5   7   9    6.20    2.60
   4  -7  -9  290.87   14.80
   4  -7  -9  291.87    8.40
   4  -7  -9  326.27   15.20
   4  -7  -9  300.37   13.80
  -4   7   9  289.87   17.70
   3  -7  -9   36.60    5.20
   3  -7  -9   40.60    5.90
   3  -7  -9   51.29    6.10
   3  -7  -9   47.10    4.80
  -3   7   9   37.40    6.80
  -3   7   9   32.10    8.80
   2  -7  -9   33.90    4.40
   2  -7  -9   33.50    4.60
   2  -7  -9   31.80    5.20
  -2   7   9   36.10    7.50
  -2   7   9   30.70    8.50
   1  -7  -9    3.00    2.30
   1  -7  -9    4.50    2.20
   1  -7  -9    5.40    3.60
  -1   7   9    0.80    6.60
  -1   7   9   -3.20    4.00
   0  -7  -9  440.36   17.90
   0  -7  -9  435.06   11.10
   0  -7  -9  456.45   11.30
   0   7   9  449.26   24.50
   0   7   9  463.15   19.70
  -1  -7  -9   42.50    2.90
  -1  -7  -9   34.10    6.10
  -1  -7  -9   38.30    3.00
  -1  -7  -9   41.00    4.80
   1   7   9   31.70    8.50
   1   7   9   40.80    7.30
  -2  -7  -9  403.36   10.30
  -2  -7  -9  438.26   15.20
  -2  -7  -9  438.36   10.50
  -2  -7  -9  484.65   24.20
   2   7   9  443.86   24.40
   2   7   9  393.06   18.70
  -3  -7  -9    2.30    2.10
  -3  -7  -9    4.40    2.10
  -3  -7  -9   -2.70    3.70
  -3  -7  -9   -0.20    4.00
   3   7   9   -0.10    4.60
   3   7   9    4.40    5.80
  -4  -7  -9   37.00    6.90
  -4  -7  -9   37.70    4.40
  -4  -7  -9   30.80    7.20
   4   7   9   42.30   10.00
   4   7   9   43.20    7.70
  -5  -7  -9    2.00    4.10
  -5  -7  -9   13.60    6.70
  -5  -7  -9    7.70    5.20
   5   7   9    2.10    2.00
   5   7   9    6.00    5.20
   5   7   9    7.80    6.20
  -6  -7  -9  265.17   13.10
  -6  -7  -9  279.47   21.70
  -6  -7  -9  238.88   17.50
  -6  -7  -9  258.97   11.80
   6   7   9  251.87   11.50
   6   7   9  281.17   17.10
   6   7   9  251.77   20.90
  -7  -7  -9   22.30    5.50
  -7  -7  -9   14.60    7.00
  -7  -7  -9   29.10    8.60
   7   7   9   28.70    8.10
   7   7   9   15.90    8.10
   6  -8  -9   33.40    7.00
  -6   8   9   45.30    9.10
   5  -8  -9   -1.00    4.30
  -5   8   9    8.10    5.60
   4  -8  -9  225.88   10.20
   4  -8  -9  230.78   13.50
  -4   8   9  215.38   15.00
  -4   8   9  229.48    7.60
   3  -8  -9   43.00    3.70
   3  -8  -9   43.40    4.90
   3  -8  -9   41.80    3.70
   3  -8  -9   40.10    5.90
  -3   8   9   48.20   10.20
  -3   8   9   32.00    7.00
   2  -8  -9  493.25   17.00
  -2   8   9  540.05   21.50
  -2   8   9  500.45   27.60
   1  -8  -9  227.28   12.60
  -1   8   9  266.47   20.20
  -1   8   9  236.48   14.00
   0  -8  -9   28.00    5.60
   0   8   9   26.10    6.40
   0   8   9   22.10    8.80
  -1  -8  -9    0.20    3.00
  -1  -8  -9   -5.90    4.20
   1   8   9   -3.70    4.10
   1   8   9    7.90    7.70
  -2  -8  -9  417.36   19.80
   2   8   9  415.16   18.70
   2   8   9  411.46   24.20
  -3  -8  -9   69.69    9.40
  -3  -8  -9   72.49    8.00
   3   8   9   61.09   10.40
   3   8   9   69.79    8.70
  -4  -8  -9  287.67   16.20
  -4  -8  -9  282.77   18.50
   4   8   9  283.07   15.80
   4   8   9  285.87   22.90
  -5  -8  -9   77.19   12.00
   5   8   9   89.19    9.70
   5   8   9   74.49   12.80
   5   8   9   83.49    3.70
  -6  -8  -9    2.10    5.50
  -6  -8  -9    2.40    4.70
   6   8   9   -1.40    5.10
  -7  -8  -9   -6.30    5.40
   7   8   9    2.80    7.80
   7   8   9   -1.20    4.40
  -5   9   9  127.99   11.80
   4  -9  -9    6.60    5.40
  -4   9   9    1.00    7.50
  -4   9   9    4.20    4.90
   3  -9  -9   56.79    5.80
   3  -9  -9   40.40    6.10
  -3   9   9   60.79    4.90
  -3   9   9   69.29   11.70
  -3   9   9   65.29    9.10
   2  -9  -9    5.80    3.90
  -2   9   9    2.10    4.60
  -2   9   9    0.20    2.00
  -2   9   9    1.40    5.80
   1  -9  -9   69.89    8.30
  -1   9   9   71.09    8.60
  -1   9   9   60.49   11.40
   0  -9  -9   11.90    4.80
   0   9   9   11.60    7.00
   0   9   9   25.30    6.40
  -1  -9  -9  206.58   11.50
  -1  -9  -9  202.28   13.70
   1   9   9  215.88   13.30
   1   9   9  226.48   18.70
  -2  -9  -9   22.20    6.20
  -2  -9  -9   22.90    5.40
   2   9   9   34.20    9.10
   2   9   9   25.20    6.10
  -3  -9  -9   31.60    6.00
  -3  -9  -9   34.40    8.40
   3   9   9   37.80    7.00
   3   9   9   24.60    8.40
  -4  -9  -9    6.90    5.00
  -4  -9  -9   -0.20    5.00
   4   9   9    0.10    4.90
   4   9   9   17.80    7.90
  -5  -9  -9  117.89   12.30
   5   9   9   94.69   10.90
   5   9   9  101.19   14.40
  -6  -9  -9   13.40    7.80
  -6  -9  -9   -5.30    5.80
   6   9   9    7.10    6.80
   6   9   9   -2.50    5.60
  -4  10   9   50.59    6.70
  -4  10   9   47.10   11.00
  -4  10   9   51.99    8.60
  -3  10   9   72.59   13.10
   2 -10  -9   75.99    8.00
  -2  10   9   44.60   11.00
  -2  10   9   84.59    9.20
  -2  10   9   70.39    6.00
   1 -10  -9   74.09    8.30
  -1  10   9   77.89    8.30
  -1  10   9   53.19    5.50
  -1  10   9   62.09   11.50
   0 -10  -9   -2.10    5.20
   0  10   9    4.70    6.20
   0  10   9   10.20    5.10
  -1 -10  -9   49.90    7.00
  -1 -10  -9   31.00    7.40
   1  10   9   40.20    9.20
   1  10   9   53.79    7.40
  -2 -10  -9  133.19   12.10
  -2 -10  -9  116.29   10.80
   2  10   9  132.59   16.60
   2  10   9  133.19   10.70
  -3 -10  -9  104.39   10.90
  -3 -10  -9  103.29   11.20
   3  10   9  108.89   15.10
   3  10   9   92.79    9.00
  -4 -10  -9   95.29   18.10
  -4 -10  -9   80.89   13.00
   4  10   9   75.29    8.70
   4  10   9   63.99   12.20
  -5 -10  -9   24.10    7.30
  -5 -10  -9   14.00    6.40
   5  10   9   21.50    8.40
   5  10   9   21.20    6.40
   3 -11  -9    3.90    3.60
  -3  11   9    4.40    6.90
  -3  11   9    8.20    3.30
   2 -11  -9   69.29    7.60
  -2  11   9   81.49    9.00
  -2  11   9   67.19   12.90
   1 -11  -9   31.60    6.30
  -1  11   9   38.90    6.60
   0 -11  -9  287.77   16.10
   0  11   9  302.77   15.20
   0  11   9  258.77   22.20
  -1 -11  -9    8.00    5.60
   1  11   9    3.70    3.90
   1  11   9   -1.20    5.30
  -2 -11  -9   31.80    7.10
  -2 -11  -9   34.80    7.60
   2  11   9   41.00   10.70
   2  11   9   52.99    7.60
  -3 -11  -9   21.20    6.50
  -3 -11  -9   12.40    6.50
   3  11   9    3.00    4.60
  -4 -11  -9   86.19   11.50
  -4 -11  -9   54.99    9.10
   4  11   9   73.99    8.30
   4  11   9   84.39   13.10
   2 -12  -9   25.30    5.90
  -2  12   9   25.00    8.90
  -2  12   9   24.30    6.30
   1 -12  -9   43.40    7.40
  -1  12   9   45.60   10.10
  -1  12   9   40.70    6.30
   0 -12  -9   -0.90    4.90
   0  12   9   -4.80    3.80
   0  12   9   -5.90    5.40
  -1 -12  -9    6.20    4.70
   1  12   9    7.50    4.60
   1  12   9    5.30    6.60
  -2 -12  -9   70.39   10.40
  -2 -12  -9   53.99   11.50
   2  12   9   61.59    7.70
   2  12   9   64.39   12.70
  -1  -8  10    3.00    5.30
   0   8 -10    1.10    6.70
   0   8 -10   18.50    6.60
   0  -8  10    8.40    6.40
  -1   8 -10   10.50    7.40
  -1   8 -10    0.10    8.70
   1  -8  10   14.10    6.00
  -2   8 -10  104.69   13.90
   2  -8  10   62.39    9.00
   3   7 -10   10.60    7.90
  -3  -7  10    1.80    5.80
  -3  -7  10   -2.30    5.70
   2   7 -10   66.29   10.90
  -2  -7  10   60.39    9.70
   1   7 -10   -9.00    4.50
  -1  -7  10    2.20    5.10
   0   7 -10  182.78   16.60
   0   7 -10  148.19   16.90
  -1   7 -10    2.40    7.90
  -1   7 -10    6.60    6.50
   1  -7  10    3.90    5.20
  -2   7 -10   73.89   13.10
   2  -7  10   52.69    9.30
  -3   7 -10   16.70    6.80
  -3   7 -10   -3.70    6.80
   3  -7  10   -0.80    5.50
  -4   7 -10   50.89   11.40
  -4   7 -10   77.29   13.10
   4  -7  10   56.29    9.40
   4   6 -10   -6.70    8.20
  -4  -6  10   10.90    7.70
  -4  -6  10    3.80    6.50
   3   6 -10  113.09   15.90
  -3  -6  10   92.59   13.20
  -3  -6  10   89.19   10.70
   2   6 -10   -2.50    5.70
   2   6 -10   -3.80    4.80
  -2  -6  10    8.80    6.10
   1   6 -10   33.80    8.90
   1   6 -10   18.40    8.80
  -1  -6  10   35.50    7.90
   0   6 -10   12.60    7.10
   0   6 -10   -1.00    5.80
   0  -6  10   -1.40    5.40
  -1   6 -10   58.69   11.60
  -1   6 -10   76.59   11.70
   1  -6  10   63.99   10.00
   1  -6  10   55.79    6.50
  -2   6 -10    3.60    7.20
  -2   6 -10    3.40    3.90
  -2   6 -10  -13.60    4.70
   2  -6  10   17.90    6.10
   2  -6  10    1.00    3.70
  -3   6 -10   75.79   12.30
  -3   6 -10   75.79   12.40
   3  -6  10   68.29   10.10
   3  -6  10   45.90    7.30
  -4   6 -10    5.80    8.50
   4  -6  10   -5.10    5.00
   4  -6  10    2.10    4.70
  -5   6 -10   -1.50    5.90
  -5   6 -10   -9.90    7.20
   5  -6  10   -3.80    4.40
   5  -6  10    5.80    6.90
   5   5 -10   55.69   12.80
  -5  -5  10   32.40    8.40
  -5  -5  10   41.10    8.30
   4   5 -10   41.70    9.40
  -4  -5  10   27.10    6.90
  -4  -5  10   41.30    8.20
   3   5 -10   15.00    8.00
  -3  -5  10   -1.50    2.90
  -3  -5  10    6.90    6.30
  -3  -5  10    3.50    2.40
  -3  -5  10   15.80    6.40
   2   5 -10   46.50    9.50
  -2  -5  10   23.00    3.00
  -2  -5  10   33.40    7.40
   1   5 -10  160.48   15.50
   1   5 -10  142.49   16.10
  -1  -5  10  143.79    7.20
  -1  -5  10  144.89   13.60
   0   5 -10  139.39   13.90
   0   5 -10  144.49   14.80
   0  -5  10  132.99    8.20
   0  -5  10  146.09   12.80
  -1   5 -10   52.69   10.30
  -1   5 -10   51.19    9.60
   1  -5  10   54.49    9.70
  -2   5 -10   29.40    8.80
  -2   5 -10   49.30   10.20
   2  -5  10   28.70    7.10
   2  -5  10   25.10    5.90
  -3   5 -10   51.99   10.90
  -3   5 -10   56.49   10.80
  -3   5 -10   46.30    9.00
   3  -5  10   46.00    8.00
   3  -5  10   66.19   10.80
  -4   5 -10   51.29   10.50
  -4   5 -10   44.70   10.20
   4  -5  10   29.70    7.60
   4  -5  10   35.10    7.50
  -5   5 -10  122.59   15.00
  -5   5 -10  185.88   17.40
   5  -5  10  148.79   14.00
   5  -5  10  145.29   13.60
  -6   5 -10   95.89   14.50
   6  -5  10  120.69   14.60
   6  -5  10  101.29   12.60
   5   4 -10    7.30    6.70
  -5  -4  10    7.70    5.80
  -5  -4  10   -1.60    4.40
  -5  -4  10    5.90    6.70
  -4  -4  10  231.28   16.30
  -4  -4  10  207.58   16.30
  -4  -4  10  178.08   12.90
   3   4 -10   33.30    9.60
  -3  -4  10   38.90    8.60
  -3  -4  10   40.50   15.50
  -3  -4  10   22.30    4.20
   2   4 -10   51.49   10.30
  -2  -4  10   57.09    9.50
  -2  -4  10   49.50    5.90
   1   4 -10    1.60    4.40
   1   4 -10   -5.70    4.40
  -1  -4  10   -0.80    3.00
  -1  -4  10   -3.20    4.10
   0   4 -10   30.10    7.70
   0   4 -10   46.00    9.90
   0  -4  10   39.40    8.30
  -1   4 -10   20.90    7.80
  -1   4 -10   39.70    8.90
   1  -4  10   32.20    7.80
   1  -4  10   30.90    5.80
  -2   4 -10  381.76   21.60
  -2   4 -10  374.86   17.30
  -2   4 -10  377.66   22.40
   2  -4  10  369.86   17.40
   2  -4  10  358.46   20.10
  -3   4 -10    9.60    6.00
  -3   4 -10    3.40    6.60
   3  -4  10   16.10    7.10
   3  -4  10   14.20    5.40
  -4   4 -10   56.99   10.50
  -4   4 -10   48.40    9.90
   4  -4  10   57.39    9.30
   4  -4  10   63.29   10.30
  -5   4 -10   -1.20    6.60
   5  -4  10   -2.80    5.10
   5  -4  10    5.40    6.70
  -6   4 -10   40.50   10.50
  -6   4 -10   53.59   10.40
   6  -4  10   38.80    9.50
   6   3 -10   54.39   12.10
  -6  -3  10   24.00    5.90
  -6  -3  10   23.80    9.90
  -6  -3  10   22.40    7.40
   5   3 -10   18.10    8.50
  -5  -3  10    2.00    6.80
  -5  -3  10    2.60   10.10
  -5  -3  10    5.40    5.00
  -5  -3  10    9.90    5.80
   4   3 -10    7.50    5.60
  -4  -3  10    9.90    5.50
  -4  -3  10   -3.20    4.60
  -4  -3  10   -3.30    3.60
   3   3 -10   10.90    7.30
  -3  -3  10   12.80    4.50
  -3  -3  10   -1.30    4.00
  -3  -3  10    6.10    5.50
   2   3 -10  169.18   15.00
  -2  -3  10  172.78   14.10
  -2  -3  10  170.38   10.90
   1   3 -10  141.69   13.60
   1   3 -10  144.99   11.60
   1   3 -10  150.98   14.00
  -1  -3  10  140.09   10.10
  -1  -3  10  149.09   12.80
   0   3 -10   48.70    9.80
   0   3 -10   53.49    9.30
   0  -3  10   44.10    6.30
   0  -3  10   46.90    8.40
  -1   3 -10   -1.50    4.10
  -1   3 -10    5.20    4.70
   1  -3  10    4.20    4.20
   1  -3  10    3.90    5.00
  -2   3 -10   19.90    7.60
  -2   3 -10   24.50    8.10
  -2   3 -10   21.50    5.90
   2  -3  10   25.50    7.60
   2  -3  10   22.40    6.10
  -3   3 -10   39.00    9.20
  -3   3 -10   39.60   10.60
   3  -3  10   65.89   10.30
   3  -3  10   46.70    7.50
  -4   3 -10   77.19   11.80
  -4   3 -10   61.59    9.80
   4  -3  10   85.19   11.00
   4  -3  10   68.19   10.30
  -5   3 -10   60.79   10.40
  -5   3 -10   52.49   10.10
   5  -3  10   58.99    9.90
   5  -3  10   47.20    9.10
  -6   3 -10    3.20    6.90
  -6   3 -10   14.00    6.50
   6  -3  10   14.50    7.70
   6  -3  10   -7.10    5.70
  -7   3 -10   -4.80    5.60
   7  -3  10    9.60    7.80
   7  -3  10   -8.80    7.60
   6   2 -10   10.80    7.20
  -6  -2  10    4.60    8.10
  -6  -2  10    3.00    6.40
  -6  -2  10   -3.80    4.60
  -5  -2  10  188.88   13.50
  -5  -2  10  173.08   13.70
   4   2 -10   14.50    7.00
  -4  -2  10    5.70    5.80
  -4  -2  10    7.50    5.20
  -4  -2  10    2.40    5.20
   3   2 -10  203.88   12.90
   3   2 -10  252.37   18.70
  -3  -2  10  223.18   13.90
  -3  -2  10  214.98   17.00
  -3  -2  10  184.18   13.00
   2   2 -10   -2.80    4.30
   2   2 -10    9.70    5.90
  -2  -2  10    2.90    4.40
  -2  -2  10   -1.20    4.80
   1   2 -10    6.50    5.50
  -1  -2  10    3.20    3.80
  -1  -2  10    4.40    5.30
   0   2 -10    5.00    6.10
   0   2 -10   -5.90    3.30
   0   2 -10   -2.90    3.60
   0  -2  10   -0.80    3.80
   0  -2  10   -0.70    4.10
  -1   2 -10  437.76   22.40
  -1   2 -10  366.06   17.40
  -1   2 -10  392.36   17.90
  -1   2 -10  403.46   20.30
   1  -2  10  391.26   18.30
   1  -2  10  394.46   20.50
  -2   2 -10   -1.70    3.60
  -2   2 -10    3.70    4.70
  -2   2 -10   -0.10    4.40
  -2   2 -10    2.90    5.50
   2  -2  10   -1.20    3.90
   2  -2  10   -0.20    4.90
  -3   2 -10  230.48   17.30
  -3   2 -10  237.48   16.30
   3  -2  10  264.67   16.80
   3  -2  10  258.97   17.80
  -4   2 -10   -4.90    4.90
  -4   2 -10    3.60    4.80
   4  -2  10    0.90    5.20
  -5   2 -10   32.60    9.60
  -5   2 -10   28.00    7.90
   5  -2  10   43.90    9.90
   5  -2  10   24.20    7.10
  -6   2 -10    2.20    6.00
  -6   2 -10    9.40    8.60
   6  -2  10    3.80    6.00
   6  -2  10    1.70    6.40
  -7   2 -10  222.48   17.70
  -7   2 -10  220.28   18.90
   7  -2  10  230.08   17.60
   7  -2  10  226.38   19.30
  -7  -1  10  147.19   12.60
   6   1 -10   40.90    9.60
  -6  -1  10   30.10    6.90
  -6  -1  10   43.90   10.30
   5   1 -10    1.60    6.50
  -5  -1  10    2.40    3.70
  -5  -1  10   -7.00    4.60
  -5  -1  10    7.90    7.40
   4   1 -10    2.80    6.60
  -4  -1  10    7.20    6.00
  -4  -1  10    8.10    4.40
  -4  -1  10   10.80    6.20
   3   1 -10  168.18   15.60
   3   1 -10  173.18   10.70
  -3  -1  10  196.18   16.60
  -3  -1  10  187.38   14.00
  -3  -1  10  148.59   11.00
   2   1 -10   68.89   10.50
   2   1 -10   45.20    5.90
  -2  -1  10   65.49    8.20
  -2  -1  10   56.69    9.20
   1   1 -10  453.15   16.80
   1   1 -10  458.25   22.00
  -1  -1  10  487.05   22.70
  -1  -1  10  450.55   19.20
   0   1 -10   87.99    7.70
   0   1 -10   94.59   10.40
   0   1 -10  101.39   11.80
   0  -1  10  100.09   11.40
   0  -1  10  106.59    9.60
  -1   1 -10   -5.30    3.30
  -1   1 -10    0.60    3.90
  -1   1 -10    1.20    4.00
  -1   1 -10    5.00    5.60
   1  -1  10   14.00    6.90
   1  -1  10    3.40    4.70
  -2   1 -10   -3.80    4.50
  -2   1 -10   15.00    5.10
   2  -1  10    6.20    5.60
   2  -1  10    7.90    5.70
  -3   1 -10  302.27   16.60
  -3   1 -10  290.47   18.80
  -3   1 -10  318.77   17.20
   3  -1  10  304.27   18.10
   3  -1  10  322.77   19.00
  -4   1 -10   80.39   11.10
  -4   1 -10   69.39    9.70
   4  -1  10   62.49   11.50
   4  -1  10   90.29   11.90
  -5   1 -10  272.87   18.90
  -5   1 -10  250.27   16.40
   5  -1  10  253.17   17.90
   5  -1  10  244.88   18.20
  -6   1 -10   -0.40    6.30
  -6   1 -10    9.70    7.70
   6  -1  10   16.40    6.20
   6  -1  10   11.00    7.90
  -7   1 -10   11.40    6.00
  -7   1 -10   14.90    6.90
   7  -1  10    4.60    5.60
   7  -1  10    3.00    6.40
  -8   1 -10    5.80    6.70
  -8   1 -10  -10.40    5.10
   8  -1  10    4.60    5.60
  -7   0  10    4.10    4.70
   6   0 -10   32.20    9.00
  -6   0  10   32.50    6.10
  -6   0  10   49.50    9.60
   5   0 -10   -4.30    5.00
  -5   0  10    1.60    4.40
  -5   0  10    4.10    3.90
  -5   0  10    1.20    5.80
   4   0 -10  317.07   20.50
  -4   0  10  353.66   20.10
  -4   0  10  368.46   21.80
  -4   0  10  320.97   14.80
   3   0 -10    0.60    5.20
  -3   0  10   -4.70    3.80
  -3   0  10    0.60    3.40
  -3   0  10   -5.70    4.80
   2   0 -10   15.40    4.00
   2   0 -10   33.40    7.70
  -2   0  10    8.70    5.90
  -2   0  10   20.70    6.20
   1   0 -10    8.30    5.60
   1   0 -10    6.50    3.10
  -1   0  10    4.30    3.70
  -1   0  10    0.40    4.20
   0   0 -10  267.87   20.10
   0   0 -10  300.87   14.90
   0   0 -10  281.37   11.60
   0   0  10  276.57   16.90
   0   0  10  262.47   15.50
  -1   0 -10    3.40    3.70
  -1   0 -10   -4.20    5.50
  -1   0 -10   -5.70    3.40
   1   0  10    1.70    4.50
   1   0  10    2.50    5.30
  -2   0 -10  244.18   13.20
  -2   0 -10  254.07   17.20
  -2   0 -10  240.98   13.80
   2   0  10  229.38   16.20
   2   0  10  227.88   16.00
  -3   0 -10   14.80    6.70
  -3   0 -10    8.80    4.10
   3   0  10   11.40    6.60
   3   0  10    0.70    5.10
  -4   0 -10   -3.80    4.00
  -4   0 -10    7.40    5.90
   4   0  10    0.40    5.00
   4   0  10    1.80    5.20
  -5   0 -10    1.80    4.10
  -5   0 -10   -2.30    4.90
   5   0  10   -4.50    4.50
   5   0  10    0.40    5.00
  -6   0 -10   50.89    9.90
  -6   0 -10   37.60    9.30
   6   0  10   52.09    9.50
   6   0  10   36.00    9.10
  -7   0 -10   -4.60    4.70
   7   0  10   10.50    7.90
   7   0  10   -3.10    5.20
  -8   0 -10   50.89   10.20
  -8   0 -10   42.20    9.60
  -8   0 -10   35.10    8.90
   8   0  10   18.20    9.60
   7  -1 -10  139.99   14.10
  -7   1  10  146.79   11.20
   6  -1 -10   13.70    7.50
   6  -1 -10   -1.80    5.40
  -6   1  10   13.30    4.10
  -6   1  10    9.90    7.20
   5  -1 -10   10.80    7.00
   5  -1 -10    8.10    4.60
  -5   1  10    6.00    5.80
  -5   1  10    0.60    3.80
   4  -1 -10   47.80    9.80
  -4   1  10   34.00    9.70
  -4   1  10   49.20    9.70
  -4   1  10   47.60    5.90
   3  -1 -10  346.87   20.80
  -3   1  10  350.86   21.00
  -3   1  10  330.27   19.70
   2  -1 -10  115.39   13.20
  -2   1  10  129.89   12.80
  -2   1  10  105.39   12.40
   1  -1 -10  491.35   13.10
  -1   1  10  478.95   22.70
  -1   1  10  488.35   22.40
   0  -1 -10   80.89   11.00
   0  -1 -10   76.59    8.00
   0   1  10   71.89    9.70
  -1  -1 -10   76.19    6.70
  -1  -1 -10   89.69   10.80
   1   1  10   86.69   10.30
  -2  -1 -10   70.29   11.70
  -2  -1 -10   43.30    6.10
  -2  -1 -10   55.19    7.70
   2   1  10   43.10    8.90
   2   1  10   51.59    8.40
  -3  -1 -10  581.24   25.30
  -3  -1 -10  574.04   20.30
   3   1  10  570.04   25.10
   3   1  10  552.74   25.70
  -4  -1 -10   99.29    9.50
  -4  -1 -10   91.59   11.90
   4   1  10   76.39   10.70
   4   1  10   85.09   11.70
  -5  -1 -10  193.38   14.90
  -5  -1 -10  175.48   12.60
   5   1  10  200.68   12.80
   5   1  10  207.98   16.90
   5   1  10  191.48   16.60
  -6  -1 -10    3.20    5.30
  -6  -1 -10   -6.70    4.20
  -6  -1 -10    5.60    5.10
   6   1  10    0.60    5.90
   6   1  10    3.60    6.80
  -7  -1 -10   57.19    9.80
  -7  -1 -10   54.59    9.10
   7   1  10   21.50   11.40
   7   1  10   29.20   10.30
  -8  -1 -10   32.50    8.70
  -8  -1 -10   31.00    7.90
  -8  -1 -10   29.60    8.80
   8   1  10   23.70    8.40
   7  -2 -10   62.09   10.40
  -7   2  10   47.10    6.20
  -7   2  10   72.79   14.00
   6  -2 -10   -4.40    6.50
   6  -2 -10    4.50    7.30
  -6   2  10    1.90    3.00
   5  -2 -10  285.57   12.90
   5  -2 -10  307.07   19.20
  -5   2  10  294.37   11.60
  -5   2  10  288.07   19.60
   4  -2 -10    3.40    5.70
  -4   2  10    3.60    2.30
  -4   2  10    3.00    4.50
  -4   2  10   16.40    6.00
   3  -2 -10  127.99   11.10
   3  -2 -10  141.69   13.60
  -3   2  10  124.89   14.20
  -3   2  10  145.79   14.60
   2  -2 -10    2.70    3.90
  -2   2  10    1.20    5.30
  -2   2  10    5.00    5.70
   1  -2 -10  127.29   11.90
  -1   2  10  101.99   12.10
   0  -2 -10    2.40    4.70
   0  -2 -10    1.80    1.20
   0  -2 -10   10.00    3.70
   0   2  10   -8.20    4.20
   0   2  10   -7.40    4.60
  -1  -2 -10  518.55   15.10
  -1  -2 -10  542.85   22.90
  -1  -2 -10  533.75   17.40
   1   2  10  574.34   25.20
   1   2  10  562.54   23.90
  -2  -2 -10   -2.60    5.30
  -2  -2 -10   -1.90    2.70
   2   2  10    7.50    6.40
  -3  -2 -10   24.50    4.50
  -3  -2 -10   29.90    6.70
   3   2  10   23.60    7.70
  -4  -2 -10   -2.00    3.50
  -4  -2 -10   -2.20    4.30
   4   2  10    4.00    5.40
   4   2  10   -2.00    5.10
  -5  -2 -10  266.47   17.60
  -5  -2 -10  253.97   17.60
  -5  -2 -10  242.48   13.40
   5   2  10  264.37   18.00
   5   2  10  277.17   20.40
  -6  -2 -10    3.40    5.30
  -6  -2 -10    2.00    4.70
  -6  -2 -10   -1.30    4.10
   6   2  10   -0.20    6.20
   6   2  10   -2.40    5.90
  -7  -2 -10  214.78   16.80
  -7  -2 -10  204.58   14.80
  -8  -2 -10   13.10    7.90
  -8  -2 -10   -4.50    5.30
  -8  -2 -10    1.50    6.40
   8   2  10    3.30    6.30
   8   2  10    1.20    5.70
   7  -3 -10   36.50    9.20
  -7   3  10   21.70    5.00
  -7   3  10   32.10    9.90
   6  -3 -10   21.90    7.20
   5  -3 -10    8.50    3.90
   5  -3 -10    1.10    5.40
  -5   3  10   12.40    2.90
  -5   3  10    6.30    5.50
   4  -3 -10   75.29   11.40
  -4   3  10   56.29   10.20
  -4   3  10   67.09   11.00
   3  -3 -10   74.39   10.40
   3  -3 -10   59.69    7.60
  -3   3  10   83.59   11.30
  -3   3  10   72.79   10.80
   2  -3 -10  107.79    8.80
   2  -3 -10  108.39   10.90
  -2   3  10   91.69   11.90
  -2   3  10   89.79   12.20
   1  -3 -10   21.30    7.00
   1  -3 -10   15.10    3.80
  -1   3  10   20.20    7.70
  -1   3  10   19.60    7.60
   0  -3 -10    1.10    4.80
   0  -3 -10    1.80    2.30
   0  -3 -10    5.50    2.80
   0   3  10   -0.60    4.80
   0   3  10    2.10    5.60
  -1  -3 -10   27.00    3.00
  -1  -3 -10   21.40    2.60
  -1  -3 -10   27.40    6.40
  -1  -3 -10   21.10    3.40
   1   3  10   18.30    6.50
   1   3  10   24.80    7.10
  -2  -3 -10   57.09    8.50
  -2  -3 -10   49.20    4.80
   2   3  10   50.99    8.90
   2   3  10   59.69   11.50
  -3  -3 -10   26.90    7.10
  -3  -3 -10    4.50    5.70
  -3  -3 -10   13.60    2.90
   3   3  10   20.80    7.80
   3   3  10    6.90    6.10
  -4  -3 -10  161.88   15.30
  -4  -3 -10  109.39   12.30
  -4  -3 -10  123.29    8.60
   4   3  10  126.39   14.90
   4   3  10  127.29   12.60
  -5  -3 -10   47.40    6.10
  -5  -3 -10   35.90    7.90
  -5  -3 -10   36.20    8.20
   5   3  10   57.49    9.80
   5   3  10   38.20    5.30
   5   3  10   34.90    8.60
  -6  -3 -10    0.20    5.20
  -6  -3 -10    9.00    5.80
  -6  -3 -10   -0.90    4.30
   6   3  10    3.70    4.00
   6   3  10    0.50    4.60
   6   3  10   16.60    8.20
  -7  -3 -10   11.70    6.50
  -7  -3 -10   17.80    5.70
   7   3  10  -10.50    7.70
  -8  -3 -10   40.90    9.00
  -8  -3 -10   27.70    7.30
   8   3  10   45.00    9.60
   7  -4 -10   23.40   10.10
  -7   4  10   24.80    9.80
   6  -4 -10  233.78   18.00
  -6   4  10  198.48    9.10
   5  -4 -10   82.89   11.90
   5  -4 -10   74.19    5.50
   5  -4 -10   88.79    6.30
  -5   4  10   80.59    4.20
  -5   4  10   98.19   11.90
   4  -4 -10  175.98    9.70
   4  -4 -10  161.38   12.60
   4  -4 -10  161.88   14.50
  -4   4  10  186.88   16.30
  -4   4  10  180.58   14.60
   3  -4 -10   29.90    5.80
   3  -4 -10   49.40    8.50
  -3   4  10   38.90    8.70
  -3   4  10   34.80    8.90
   2  -4 -10  118.99    8.80
   2  -4 -10  130.59   11.80
  -2   4  10  118.89   12.00
  -2   4  10  126.89   15.70
   1  -4 -10   75.89    9.20
   1  -4 -10   82.19    9.20
  -1   4  10   71.69   12.70
  -1   4  10   78.09   10.40
   0  -4 -10  629.84   23.60
   0  -4 -10  667.83   14.80
   0  -4 -10  658.03   23.30
   0  -4 -10  673.93   24.30
   0  -4 -10  651.13   14.80
   0   4  10  662.83   26.20
  -1  -4 -10  108.39   10.10
  -1  -4 -10  104.19    8.80
  -1  -4 -10  111.89   11.40
   1   4  10  103.49   11.00
  -2  -4 -10  216.98    9.50
  -2  -4 -10  197.88   13.00
  -2  -4 -10  221.88   15.20
  -2  -4 -10  242.98   13.70
   2   4  10  229.08   15.30
   2   4  10  236.98   18.10
  -3  -4 -10   17.10    6.20
  -3  -4 -10   17.10    2.20
  -3  -4 -10   23.40    7.20
  -3  -4 -10   19.60    5.10
   3   4  10   28.70    7.90
  -4  -4 -10  203.58   13.50
  -4  -4 -10  212.28   13.20
  -4  -4 -10  184.78   14.90
  -4  -4 -10  191.28    8.70
   4   4  10  179.48   16.20
   4   4  10  196.18   14.90
  -5  -4 -10   29.70    7.80
  -5  -4 -10   25.50    4.80
  -5  -4 -10   20.40    6.00
  -5  -4 -10   31.60    7.80
   5   4  10   21.50    7.60
   5   4  10   41.40    9.30
   5   4  10   26.10    4.50
  -6  -4 -10  173.28   13.70
  -6  -4 -10  177.68   11.60
  -6  -4 -10  158.68   14.90
  -6  -4 -10  183.78   15.50
   6   4  10  174.58   15.00
   6   4  10  163.68   18.40
   6   4  10  158.08   10.00
  -7  -4 -10   35.20    7.30
  -7  -4 -10   39.30   10.10
  -7  -4 -10   34.60    8.20
  -7  -4 -10   35.50    6.80
   7   4  10   32.60   10.20
  -8  -4 -10   29.00    7.10
  -8  -4 -10   32.60    9.60
   8   4  10   35.00    8.20
   6  -5 -10   -3.80    6.30
  -6   5  10    0.80    2.50
   5  -5 -10  101.49    4.40
   5  -5 -10  120.89   13.20
  -5   5  10  126.09   12.70
   4  -5 -10  139.79    7.50
   4  -5 -10  120.19   10.70
  -4   5  10  130.29   14.50
  -4   5  10  137.39   12.70
   3  -5 -10  357.36   18.00
   3  -5 -10  335.27   14.80
   3  -5 -10  335.37   14.10
  -3   5  10  332.27   19.40
  -3   5  10  342.67   23.10
   2  -5 -10  170.58   10.50
   2  -5 -10  133.09    9.90
   2  -5 -10  164.28   12.00
   2  -5 -10  148.69    8.40
  -2   5  10  166.68   16.20
   1  -5 -10  155.18    6.00
   1  -5 -10  153.58   10.60
   1  -5 -10  153.58   11.30
   1  -5 -10  149.79   11.20
  -1   5  10  166.08   15.60
  -1   5  10  153.38   13.00
   0  -5 -10   30.50    6.30
   0  -5 -10   43.20    7.10
   0   5  10   40.70    7.70
   0   5  10   43.40    8.30
  -1  -5 -10  211.58   12.30
  -1  -5 -10  175.38   13.20
  -1  -5 -10  175.48   12.90
   1   5  10  205.68   14.00
   1   5  10  201.78   16.80
  -2  -5 -10  292.97   10.90
  -2  -5 -10  306.17   14.50
   2   5  10  270.97   16.50
   2   5  10  307.67   20.40
  -3  -5 -10  376.96   15.70
  -3  -5 -10  378.56   16.50
  -3  -5 -10  378.66   16.60
  -3  -5 -10  430.66   21.40
   3   5  10  343.07   21.90
   3   5  10  306.77   21.80
  -4  -5 -10   69.89    8.60
  -4  -5 -10   79.49    9.60
  -4  -5 -10   74.49    8.70
  -4  -5 -10   74.39   10.00
   4   5  10   69.19   11.70
   4   5  10   70.09   10.10
  -5  -5 -10   38.60    8.10
  -5  -5 -10   25.70    6.90
  -5  -5 -10   29.00    6.50
   5   5  10   41.40    9.10
   5   5  10   25.80    3.70
   5   5  10   21.70    8.50
  -6  -5 -10   29.70    7.30
  -6  -5 -10   40.20    7.50
  -6  -5 -10   52.49    9.40
   6   5  10   54.89   12.00
   6   5  10   43.00    8.90
   6   5  10   36.70    4.90
  -7  -5 -10   70.69   11.80
  -7  -5 -10   70.29    9.60
  -7  -5 -10   59.19    9.90
   7   5  10   60.79   11.90
   7   5  10   78.39   13.80
   6  -6 -10   -4.60    6.00
  -6   6  10   -3.50    5.10
   5  -6 -10   61.09    9.10
  -5   6  10   67.49   10.30
   4  -6 -10    1.90    5.50
   4  -6 -10   16.80    2.90
   4  -6 -10   10.70    5.60
  -4   6  10   31.00    8.20
  -4   6  10    9.20    6.30
   3  -6 -10   19.10    4.80
   3  -6 -10   10.10    4.20
   3  -6 -10   19.60    5.50
  -3   6  10   24.20    7.30
  -3   6  10    5.40    5.50
   2  -6 -10    6.20    4.50
   2  -6 -10    8.90    4.40
   2  -6 -10    1.40    3.60
  -2   6  10   -0.30    5.60
   1  -6 -10  180.78   10.10
   1  -6 -10  175.08   11.00
   1  -6 -10  175.78   11.40
  -1   6  10  162.68   16.00
  -1   6  10  191.68   15.10
   0  -6 -10   47.10    6.30
   0  -6 -10   37.60    5.20
   0  -6 -10   42.90    6.70
   0   6  10   46.30    9.40
   0   6  10   59.49    9.30
  -1  -6 -10   75.69    7.40
  -1  -6 -10   69.29    7.40
  -1  -6 -10   63.99    8.40
   1   6  10   80.59    9.50
   1   6  10   58.59   10.80
  -2  -6 -10    3.60    3.90
  -2  -6 -10    0.10    4.30
  -2  -6 -10    0.30    2.30
  -2  -6 -10    4.80    3.20
   2   6  10    4.80    5.30
   2   6  10   -2.40    4.90
  -3  -6 -10    4.80    4.20
  -3  -6 -10    2.00    4.20
  -3  -6 -10   10.10    5.60
   3   6  10   -1.70    5.00
   3   6  10    1.90    5.30
  -4  -6 -10    6.20    4.90
  -4  -6 -10    7.90    4.40
  -4  -6 -10   15.90    5.10
  -4  -6 -10   19.30    4.80
   4   6  10    8.70    5.00
   4   6  10   11.60    6.90
  -5  -6 -10  206.98   12.60
  -5  -6 -10  208.48   16.00
  -5  -6 -10  195.98   14.50
  -5  -6 -10  203.78   11.70
   5   6  10  194.68   15.50
   5   6  10  200.58   18.40
  -6  -6 -10   19.90    6.90
  -6  -6 -10   30.40    6.00
   6   6  10   44.50    8.40
  -7  -6 -10   50.69    9.50
  -7  -6 -10   47.20    9.20
  -7  -6 -10   44.60    7.50
   7   6  10   34.30   10.00
   7   6  10   57.59   11.30
   6  -7 -10   24.60    7.00
  -6   7  10   12.60    5.80
   5  -7 -10   -4.00    5.40
  -5   7  10    0.30    5.00
   4  -7 -10  311.17    9.40
   4  -7 -10  335.67   15.60
   4  -7 -10  293.27   14.70
   4  -7 -10  300.77   15.30
  -4   7  10  344.27   18.90
  -4   7  10  308.07   22.60
   3  -7 -10   12.00    4.20
   3  -7 -10    4.90    3.70
   3  -7 -10    4.80    4.20
   3  -7 -10    9.40    3.80
  -3   7  10   15.40    5.90
  -3   7  10   -0.10    5.80
   2  -7 -10  104.79    7.70
   2  -7 -10   77.09    5.30
   2  -7 -10   97.59    7.80
   2  -7 -10   86.09    7.30
  -2   7  10   67.99   11.80
   1  -7 -10   18.20    4.80
   1  -7 -10   12.10    3.30
   1  -7 -10   13.90    4.10
  -1   7  10   18.60    6.70
  -1   7  10   12.00    7.00
   0  -7 -10  109.99    9.90
   0  -7 -10  114.99    7.00
   0   7  10  120.89   14.30
   0   7  10  113.59   11.50
  -1  -7 -10   35.30    7.50
  -1  -7 -10   54.49    5.20
   1   7  10   51.79   10.00
   1   7  10   42.40    7.70
  -2  -7 -10  529.35   16.50
  -2  -7 -10  522.75   14.90
  -2  -7 -10  540.05   22.80
   2   7  10  531.05   27.90
   2   7  10  535.65   23.20
  -3  -7 -10   11.00    3.90
  -3  -7 -10    5.90    3.60
  -3  -7 -10   11.80    3.20
  -3  -7 -10   19.10    7.10
   3   7  10   16.30    7.00
   3   7  10   12.10    6.60
  -4  -7 -10   43.50    5.60
  -4  -7 -10   47.20    8.40
  -4  -7 -10   55.09    8.00
   4   7  10   48.60    8.70
   4   7  10   48.90   10.20
  -5  -7 -10    2.60    4.40
  -5  -7 -10    3.90    3.40
  -5  -7 -10    5.60    5.20
  -5  -7 -10    3.90    4.40
   5   7  10   -1.90    5.10
   5   7  10    7.80    7.20
  -6  -7 -10   76.99    7.80
  -6  -7 -10   69.79   10.80
  -6  -7 -10   86.79   10.80
   6   7  10   87.39   13.80
   6   7  10  105.59   13.10
  -7  -7 -10   12.10    6.30
  -7  -7 -10    7.20    5.10
   5  -8 -10    3.00    4.70
  -5   8  10    8.70    5.10
   4  -8 -10   -4.80    1.70
   4  -8 -10  -13.00    5.50
   4  -8 -10    5.70    3.60
  -4   8  10   -4.40    5.80
  -4   8  10   -2.30    3.90
   3  -8 -10    3.10    3.90
   3  -8 -10   12.50    3.90
   3  -8 -10   16.90    3.30
  -3   8  10   13.10    6.00
  -3   8  10    6.90    7.40
   2  -8 -10  340.87   14.20
   2  -8 -10  335.87    8.70
  -2   8  10  326.87   24.00
   1  -8 -10   49.90    6.90
  -1   8  10   73.29    9.80
  -1   8  10   45.90   10.30
   0  -8 -10  326.67   16.00
   0   8  10  345.77   23.40
   0   8  10  338.87   17.90
  -1  -8 -10   52.19    8.70
   1   8  10   76.99    9.50
   1   8  10   62.89   11.50
  -2  -8 -10    0.60    4.50
  -2  -8 -10   -0.10    3.40
   2   8  10    2.60    4.10
   2   8  10    5.20    6.30
  -3  -8 -10   -3.00    4.30
  -3  -8 -10    5.50    4.30
   3   8  10    6.40    5.50
   3   8  10    1.60    5.70
  -4  -8 -10  302.37   18.40
  -4  -8 -10  319.47   16.40
   4   8  10  303.97   24.10
   4   8  10  327.87   18.40
  -5  -8 -10   47.00   10.00
   5   8  10   27.20    7.20
  -6  -8 -10   75.09   10.30
  -6  -8 -10   45.30    9.70
   6   8  10   48.90   12.10
   6   8  10   56.99    9.10
  -5   9  10   83.59   11.80
  -4   9  10    0.30    6.20
  -4   9  10    3.50    5.80
  -3   9  10  152.08   12.20
  -3   9  10  126.09   16.80
   2  -9 -10   10.20    4.00
  -2   9  10    3.60    6.60
   1  -9 -10   -1.50    3.60
  -1   9  10  -11.70    4.60
  -1   9  10   -1.50    4.60
   0  -9 -10   -3.10    4.10
   0   9  10   -7.30    4.30
   0   9  10    1.00    5.10
  -1  -9 -10   95.29    9.90
   1   9  10   85.89   12.50
   1   9  10   86.99   10.20
  -2  -9 -10    0.50    4.70
  -2  -9 -10   11.70    4.70
   2   9  10   12.20    6.50
   2   9  10    4.30    4.90
  -3  -9 -10  145.39   11.40
  -3  -9 -10  128.59   12.70
   3   9  10  154.48   18.20
   3   9  10  160.48   12.60
  -4  -9 -10    1.60    4.80
  -4  -9 -10    4.70    5.80
   4   9  10   -2.30    5.30
  -5  -9 -10   -2.10    4.70
  -5  -9 -10   -7.40    4.60
   5   9  10    0.70    6.80
   5   9  10   -0.20    5.30
  -4  10  10   22.80    6.70
  -3  10  10   51.09    8.10
  -3  10  10   34.10   10.50
   2 -10 -10  111.69    9.30
  -2  10  10  107.89   15.40
   1 -10 -10  117.29   10.30
  -1  10  10  116.39   11.20
   0 -10 -10   49.90    8.10
   0  10  10   45.20   10.30
   0  10  10   55.29    8.10
  -1 -10 -10    0.90    4.80
   1  10  10   11.60    4.70
   1  10  10   -1.60    5.80
  -2 -10 -10   20.00    6.00
  -2 -10 -10   21.00    6.00
   2  10  10   21.10    6.20
   2  10  10   19.00    9.00
  -3 -10 -10  106.69    9.80
  -3 -10 -10   92.49   12.00
   3  10  10   96.19   10.20
   3  10  10   69.19   14.40
  -4 -10 -10   93.19   12.30
  -4 -10 -10  109.19   11.20
   4  10  10  134.39   16.70
   4  10  10  116.89   11.50
  -5 -10 -10   73.39   10.10
   5  10  10   57.69    8.90
   5  10  10   40.60   11.70
   2 -11 -10  -10.70    4.40
  -2  11  10  -13.40    6.80
  -2  11  10  -10.10    5.50
  -1  11  10   13.20    9.10
  -1  11  10   15.00    6.10
   0 -11 -10  140.39   12.90
   0  11  10  156.98   11.60
   0  11  10  171.18   18.00
  -1 -11 -10   12.10    6.10
   1  11  10   23.20    8.40
   1  11  10   10.40    4.90
  -2 -11 -10  225.98   14.50
  -2 -11 -10  200.18   14.50
   2  11  10  221.68   13.90
   2  11  10  213.98   19.70
  -3 -11 -10    3.00    7.20
  -3 -11 -10    5.50    5.00
   3  11  10    5.90    5.10
   3  11  10    4.60    6.10
   0   7 -11   67.69   11.90
   0   7 -11   76.79   11.90
   0  -7  11   47.80    8.70
  -1   7 -11   -6.50    5.90
  -1   7 -11   11.50    6.80
   1  -7  11    2.50    6.40
   2   6 -11    0.50    5.50
   2   6 -11    0.60    7.50
  -2  -6  11   -2.90    5.70
   1   6 -11   25.30    7.70
   1   6 -11   37.00    8.90
  -1  -6  11   34.60    7.70
   0   6 -11    7.50    6.80
   0  -6  11   11.80    6.70
  -1   6 -11   10.10    6.30
   1  -6  11   14.40    7.50
   1  -6  11   -1.30    3.70
  -2   6 -11   12.20    9.10
  -2   6 -11    8.70    6.90
   2  -6  11   14.10    7.00
  -3   6 -11   71.99   12.50
  -3   6 -11   65.69   12.10
   3  -6  11   62.89   10.50
   3  -6  11   47.50    8.20
  -4  -5  11   68.09   10.20
   3   5 -11   12.10    7.60
  -3  -5  11    7.70    5.90
   2   5 -11   -3.90    5.10
   2   5 -11   -8.70    5.50
  -2  -5  11   10.40    6.40
   1   5 -11   40.40    9.20
  -1  -5  11   54.69    9.30
  -1  -5  11   28.70    4.10
   0   5 -11   65.49   11.20
   0   5 -11   87.49   13.20
   0  -5  11   60.99    7.10
   0  -5  11   45.00    9.30
  -1   5 -11  152.08   15.40
  -1   5 -11  146.19   15.20
   1  -5  11  111.99    9.70
   1  -5  11  119.59   13.50
  -2   5 -11   70.89   11.70
   2  -5  11   39.80    7.30
   2  -5  11   67.89   10.50
  -3   5 -11   -7.20    6.60
  -3   5 -11   11.50    6.70
   3  -5  11    4.00    5.80
   3  -5  11    3.00    4.80
  -4   5 -11    4.60    7.50
  -4   5 -11    6.40    6.90
   4  -5  11    8.10    6.20
   4  -5  11   -6.60    5.40
  -5   5 -11   19.50    8.40
   5  -5  11   32.70    7.90
   5  -5  11   35.40    9.40
   4   4 -11   54.99   12.40
  -4  -4  11   40.10    5.90
  -4  -4  11   48.80    8.90
   3   4 -11   34.90    9.70
  -3  -4  11   35.60    8.50
   2   4 -11  180.28   17.10
  -2  -4  11  181.28   14.70
   1   4 -11   39.30    8.60
   1   4 -11   46.30    9.60
  -1  -4  11   34.40    8.60
   0   4 -11   12.70    6.30
   0   4 -11   19.90    7.00
   0  -4  11   18.60    4.70
   0  -4  11    8.30    5.70
  -1   4 -11    7.70    6.10
  -1   4 -11   17.90    7.70
   1  -4  11   23.90    7.80
   1  -4  11   -0.90    4.00
  -2   4 -11   52.69    7.80
  -2   4 -11   85.19   13.00
  -2   4 -11   59.49   10.60
   2  -4  11   58.09    8.00
   2  -4  11   67.89   10.90
  -3   4 -11   25.30    7.80
  -3   4 -11   46.00   10.90
   3  -4  11   33.60    6.90
   3  -4  11   25.70    8.20
  -4   4 -11  157.88   15.90
  -4   4 -11  151.38   16.80
   4  -4  11  147.69   14.50
   4  -4  11  166.98   15.00
  -5   4 -11   38.50    9.50
  -5   4 -11   24.50    8.70
   5  -4  11    9.10    5.60
   5  -4  11   28.70    8.00
  -5  -3  11   -1.60    5.30
  -5  -3  11   -9.50    5.60
  -5  -3  11    9.50    6.60
   4   3 -11   19.20    8.60
  -4  -3  11   17.30    9.30
  -4  -3  11    3.40    4.90
  -4  -3  11   17.80    7.00
   3   3 -11    3.50    8.20
  -3  -3  11    9.60    4.20
  -3  -3  11   10.50    7.70
   2   3 -11   59.19   11.00
  -2  -3  11   49.70    6.80
  -2  -3  11   41.90    9.30
   1   3 -11    6.50    6.30
   1   3 -11   37.90    9.30
  -1  -3  11   15.00    5.10
  -1  -3  11   14.60    6.20
   0   3 -11  146.39   14.20
   0   3 -11  115.29   12.70
   0  -3  11  119.49   10.20
   0  -3  11  128.29   13.00
  -1   3 -11   76.99   10.70
  -1   3 -11   99.69   13.20
   1  -3  11   87.59    9.70
   1  -3  11   67.19   11.00
  -2   3 -11   24.90    7.70
  -2   3 -11    5.80    5.80
   2  -3  11    2.10    5.00
   2  -3  11    4.20    5.70
  -3   3 -11   -4.20    4.60
  -3   3 -11    5.30    5.50
   3  -3  11    2.00    6.60
   3  -3  11    1.70    5.20
  -4   3 -11   44.50    9.80
  -4   3 -11   40.00    8.10
   4  -3  11   36.90    8.10
   4  -3  11   28.20    7.70
  -5   3 -11   10.20    7.10
  -5   3 -11   19.60    7.90
   5  -3  11    7.90    7.10
  -6   3 -11   13.80    9.20
  -6   3 -11   17.50    8.30
   6  -3  11   24.40    7.60
   6  -3  11   13.20    8.50
   5   2 -11   57.79   12.00
  -5  -2  11   35.50    8.20
  -5  -2  11   31.60    8.30
  -5  -2  11   40.90    7.20
  -4  -2  11    3.70    5.40
  -4  -2  11    1.00    7.00
  -4  -2  11   -6.90    4.10
   3   2 -11  306.57   22.10
   3   2 -11  255.87   15.60
  -3  -2  11  351.16   21.50
  -3  -2  11  289.77   15.60
   2   2 -11   -0.70    4.80
   2   2 -11   17.90    7.40
  -2  -2  11   19.40    7.60
  -2  -2  11    4.10    4.40
   1   2 -11   89.09   12.10
   1   2 -11   73.99   11.90
   1   2 -11  106.09   10.10
  -1  -2  11  111.09   12.30
  -1  -2  11   98.39    9.60
   0   2 -11   -7.30    4.20
   0   2 -11    3.10    5.60
   0   2 -11    2.80    4.00
   0  -2  11    5.00    5.90
   0  -2  11   -1.70    4.40
  -1   2 -11   84.99   11.80
  -1   2 -11   78.99   10.10
  -1   2 -11   82.59    9.50
   1  -2  11   90.09   10.10
   1  -2  11   97.39   11.90
  -2   2 -11   -6.50    5.20
  -2   2 -11    4.30    4.70
   2  -2  11    1.80    6.10
   2  -2  11    0.10    4.80
  -3   2 -11  298.57   20.30
   3  -2  11  311.97   20.20
   3  -2  11  294.77   18.60
  -4   2 -11   10.80    6.50
  -4   2 -11   13.10    7.10
   4  -2  11    8.80    5.80
   4  -2  11   12.20    6.00
  -5   2 -11   43.80    9.30
   5  -2  11   56.29   11.50
   5  -2  11   67.19   10.80
  -6   2 -11   -0.90    7.10
  -6   2 -11  -11.50    4.70
   6  -2  11   -1.30    5.60
   6  -2  11    5.10    5.60
  -6  -1  11   49.40    9.40
  -6  -1  11   72.89    8.90
   5   1 -11  146.29   15.80
  -5  -1  11  117.49   14.80
  -5  -1  11  113.69   10.60
  -5  -1  11  114.89   13.40
   4   1 -11    1.60    7.60
  -4  -1  11   -2.30    3.90
  -4  -1  11   -3.90    5.00
  -4  -1  11   -2.40    4.90
   3   1 -11    4.30    5.60
  -3  -1  11    3.80    5.90
  -3  -1  11   -1.00    4.60
   2   1 -11   31.60    6.00
   2   1 -11   35.00    7.50
  -2  -1  11   47.00    8.80
  -2  -1  11   37.20    6.80
   1   1 -11  275.07   12.60
   1   1 -11  290.37   18.30
   1   1 -11  279.17   16.50
  -1  -1  11  252.87   18.30
  -1  -1  11  260.97   15.70
   0   1 -11   72.79    7.90
   0   1 -11   77.39    9.10
   0   1 -11   71.39   10.80
   0  -1  11   92.19   11.30
   0  -1  11   83.59   10.10
  -1   1 -11  144.59   17.20
  -1   1 -11  171.38   13.10
  -1   1 -11  178.68   14.90
   1  -1  11  163.78   12.90
   1  -1  11  172.28   15.60
  -2   1 -11    7.30    4.40
  -2   1 -11   -1.00    4.50
  -2   1 -11    6.00    5.30
   2  -1  11    6.60    5.40
   2  -1  11   11.20    6.90
  -3   1 -11   19.90    6.10
  -3   1 -11   32.00    9.50
   3  -1  11   12.70    7.10
   3  -1  11    8.00    9.10
  -4   1 -11   58.49   10.90
  -4   1 -11   39.70    8.00
   4  -1  11   56.79   10.80
   4  -1  11   32.50    7.80
  -5   1 -11  240.68   17.50
  -5   1 -11  295.87   19.80
   5  -1  11  249.68   20.00
   5  -1  11  251.97   18.70
  -6   1 -11   30.80    9.20
  -6   1 -11   29.40    8.50
   6  -1  11   10.50    7.10
   6  -1  11   34.50    9.90
  -7   1 -11   69.49   11.20
  -7   1 -11   71.79   13.50
   7  -1  11   68.59   13.30
   6   0 -11    3.90    7.40
  -6   0  11   14.40    7.70
  -6   0  11   -4.90    4.00
  -6   0  11   -9.30    5.90
   5   0 -11    2.90    8.80
  -5   0  11   -3.70    5.80
  -5   0  11   -1.50    3.80
  -5   0  11    8.00    6.30
   4   0 -11  123.49   14.60
  -4   0  11   99.89   13.60
  -4   0  11   99.19   10.50
   3   0 -11    5.80    6.00
  -3   0  11    9.30    7.60
  -3   0  11   -2.20    4.60
   2   0 -11  169.88    9.00
   2   0 -11  163.48   14.30
  -2   0  11  168.48   13.40
  -2   0  11  183.08   15.80
   1   0 -11   10.80    6.70
   1   0 -11   -1.50    3.00
  -1   0  11    3.00    4.90
  -1   0  11    3.60    5.20
   0   0 -11   18.70    6.60
   0   0 -11   12.60    3.70
   0   0 -11    8.50    4.80
   0   0  11   16.70    6.20
   0   0  11   28.50    7.50
  -1   0 -11   -6.30    3.60
  -1   0 -11   10.50    3.70
  -1   0 -11    6.80    5.90
   1   0  11   -3.10    4.00
   1   0  11    5.00    4.60
  -2   0 -11  197.88   12.50
  -2   0 -11  198.68   15.20
  -2   0 -11  216.48   13.50
   2   0  11  182.38   15.20
   2   0  11  211.38   16.00
  -3   0 -11    0.60    4.00
  -3   0 -11   -0.90    5.40
  -3   0 -11   -5.50    4.50
   3   0  11   -1.60    5.30
   3   0  11   10.40    6.80
  -4   0 -11   35.60    7.10
  -4   0 -11   64.29   10.30
   4   0  11   27.30    8.80
   4   0  11   40.10    9.40
  -5   0 -11   14.40    6.80
  -5   0 -11    3.50    5.30
   5   0  11   10.60    6.60
   5   0  11    5.50    7.40
  -6   0 -11   43.80    8.40
   6   0  11   29.50    8.20
   6   0  11   28.40    9.10
  -7   0 -11   -5.20    5.00
  -7   0 -11   -2.80    5.60
  -7   0 -11    5.80    6.10
   7   0  11   -5.90    5.10
   7   0  11   -8.80    5.00
   6  -1 -11   27.80    7.90
  -6   1  11   63.89   11.30
  -6   1  11   50.79    6.30
  -6   1  11   50.19    8.40
   5  -1 -11   90.09   13.00
  -5   1  11  100.09   16.90
  -5   1  11  116.49   14.60
   4  -1 -11   -0.80    5.20
  -4   1  11   -3.40    5.60
  -4   1  11    0.80    5.80
   3  -1 -11   29.00    8.20
  -3   1  11   20.80    9.30
   2  -1 -11   62.49    9.40
   2  -1 -11   51.49    7.40
  -2   1  11   56.19    9.60
  -2   1  11   62.29   10.80
   1  -1 -11  395.36   11.30
   1  -1 -11  417.16   21.40
  -1   1  11  386.96   20.60
  -1   1  11  397.16   20.80
   0  -1 -11   81.39   10.90
   0  -1 -11   54.99    7.00
   0   1  11   64.79    9.00
   0   1  11   84.29   11.00
  -1  -1 -11  189.38   14.70
  -1  -1 -11  212.58   11.90
  -1  -1 -11  182.38    9.50
   1   1  11  186.08   14.40
   1   1  11  172.28   14.50
  -2  -1 -11    2.30    3.90
  -2  -1 -11   -0.30    3.60
  -2  -1 -11   -3.50    6.00
   2   1  11    6.70    6.90
   2   1  11   -5.50    9.10
  -3  -1 -11   63.49   10.40
  -3  -1 -11   52.29    6.70
   3   1  11   40.50    8.60
   3   1  11   50.29    9.10
  -4  -1 -11   54.59   10.00
  -4  -1 -11   48.80    7.50
   4   1  11   60.99   11.50
   4   1  11   63.69   10.50
  -5  -1 -11  405.36   22.50
  -5  -1 -11  380.56   18.40
   5   1  11  375.26   23.50
   5   1  11  406.46   23.80
  -6  -1 -11   16.60    6.90
  -6  -1 -11   -1.40    4.90
   6   1  11   17.60    8.30
  -7  -1 -11   56.89    8.70
  -7  -1 -11   84.59   13.30
  -7  -1 -11   53.59   10.50
   7   1  11   66.29   12.30
   7   1  11   83.29   12.90
   6  -2 -11    7.60    7.80
  -6   2  11   -6.40    5.70
   5  -2 -11  176.68   16.40
   5  -2 -11  173.98   12.00
  -5   2  11  160.48    8.00
   4  -2 -11    7.70    6.30
  -4   2  11  -15.50    5.50
  -4   2  11   -6.60    6.80
   3  -2 -11  226.98   16.20
  -3   2  11  227.38   17.80
  -3   2  11  219.08   17.80
   2  -2 -11    7.90    5.60
   2  -2 -11   -2.60    3.80
  -2   2  11    8.60    5.80
  -2   2  11    4.90    5.20
   1  -2 -11    1.10    5.70
   1  -2 -11   -4.60    2.80
  -1   2  11    1.10    4.90
  -1   2  11   -4.40    4.60
   0  -2 -11   -2.10    2.90
   0  -2 -11    8.40    5.00
   0   2  11    2.20    5.30
   0   2  11   -1.10    5.00
  -1  -2 -11  380.76   14.40
  -1  -2 -11  349.57   13.30
  -1  -2 -11  395.96   20.30
   1   2  11  367.66   20.10
  -2  -2 -11   12.50    6.60
  -2  -2 -11    1.70    3.20
  -2  -2 -11    3.80    3.70
   2   2  11   -4.30    4.50
   2   2  11   -8.70    5.90
  -3  -2 -11  231.28   14.20
  -3  -2 -11  256.47   16.50
   3   2  11  250.07   18.10
   3   2  11  261.67   17.90
  -4  -2 -11    3.70    5.20
  -4  -2 -11    3.30    4.20
   4   2  11    3.00    7.20
   4   2  11   -1.40    5.30
  -5  -2 -11   12.50    5.90
  -5  -2 -11   13.20    5.00
  -5  -2 -11   11.70    6.30
   5   2  11    4.50    5.00
   5   2  11   14.80    7.10
  -6  -2 -11   22.80    7.70
  -6  -2 -11   20.20    5.90
   6   2  11   23.20    8.80
   6   2  11   27.30    8.00
  -7  -2 -11  181.88   18.20
  -7  -2 -11  148.39   16.70
   7   2  11  146.99   16.70
   7   2  11  152.98   15.60
   6  -3 -11   39.00   11.60
  -6   3  11   42.10   10.20
   5  -3 -11   -3.80    4.80
   5  -3 -11   26.30    7.60
  -5   3  11    3.90    7.00
   4  -3 -11    3.90    5.70
  -4   3  11   -2.70    5.40
  -4   3  11    3.40    7.00
   3  -3 -11   40.80    8.60
   3  -3 -11   34.90    6.40
  -3   3  11   24.10    9.20
  -3   3  11   36.00    8.80
   2  -3 -11  163.98   10.90
   2  -3 -11  201.08   15.60
  -2   3  11  185.48   16.50
  -2   3  11  197.48   16.10
   1  -3 -11  123.39    8.90
   1  -3 -11  126.89   12.90
  -1   3  11  111.19   12.20
  -1   3  11  118.19   12.80
   0  -3 -11   59.79   11.20
   0  -3 -11   48.10    5.80
   0  -3 -11   47.90    5.70
   0   3  11   42.50    8.10
   0   3  11   50.09    8.60
  -1  -3 -11   22.30    3.50
  -1  -3 -11   27.40    8.10
  -1  -3 -11   33.10    2.50
   1   3  11   28.00    7.10
   1   3  11   38.70    8.50
  -2  -3 -11   14.20    3.90
  -2  -3 -11   15.70    3.10
   2   3  11   21.10    6.40
   2   3  11   23.20    6.50
  -3  -3 -11   78.59   10.50
  -3  -3 -11   61.89   10.30
  -3  -3 -11   72.19    6.10
   3   3  11   71.29   11.20
   3   3  11   59.89   10.10
  -4  -3 -11  109.69    8.10
  -4  -3 -11  137.19   12.20
  -4  -3 -11  116.59   13.00
   4   3  11  119.99   14.80
   4   3  11  119.79   14.30
  -5  -3 -11   17.70    4.60
  -5  -3 -11   25.50    7.60
  -5  -3 -11   40.50    8.10
   5   3  11   10.90    7.00
   5   3  11   38.00    8.90
  -6  -3 -11   15.80    5.20
  -6  -3 -11   28.10    7.80
   6   3  11   11.00    8.20
   6   3  11   18.90    5.00
   6   3  11   18.90    8.40
  -7  -3 -11    7.00    6.80
  -7  -3 -11   -4.80    4.40
  -7  -3 -11   -8.70    6.30
   7   3  11   -7.90    5.90
   7   3  11   13.70    6.40
   6  -4 -11   48.00   11.40
  -6   4  11   60.49   10.60
   5  -4 -11   20.40    4.40
   5  -4 -11   27.10    8.70
  -5   4  11   12.30    7.00
   4  -4 -11  239.48   16.60
  -4   4  11  222.28   18.50
  -4   4  11  238.18   17.70
   3  -4 -11   81.69   10.80
  -3   4  11   86.19   12.60
  -3   4  11   84.49   13.10
   2  -4 -11    2.80    3.90
   2  -4 -11    5.80    6.10
  -2   4  11   11.70    6.60
  -2   4  11    5.50    5.40
   1  -4 -11    2.20    5.00
   1  -4 -11    2.80    2.60
   1  -4 -11    9.10    3.20
  -1   4  11    4.90    5.60
  -1   4  11   -5.00    4.40
   0  -4 -11  178.98    6.90
   0  -4 -11  190.88   14.00
   0  -4 -11  194.58    7.20
   0   4  11  205.88   15.30
   0   4  11  215.18   16.50
  -1  -4 -11   64.29    9.10
   1   4  11   54.59    9.50
   1   4  11   71.99   10.10
  -2  -4 -11  581.24   25.20
  -2  -4 -11  554.34   15.50
  -2  -4 -11  566.64   22.90
   2   4  11  586.54   25.60
   2   4  11  570.24   27.30
  -3  -4 -11   31.50    8.20
  -3  -4 -11   32.90    6.80
  -3  -4 -11   28.10    6.40
   3   4  11   33.90    8.30
   3   4  11   48.80    9.90
  -4  -4 -11   -0.40    5.50
  -4  -4 -11   -2.10    2.40
  -4  -4 -11   -2.20    4.80
  -4  -4 -11   -3.00    4.40
   4   4  11    5.00    5.60
   4   4  11  -14.10    5.30
  -5  -4 -11    5.70    3.70
  -5  -4 -11   10.50    6.40
  -5  -4 -11   18.20    6.60
  -5  -4 -11    6.00    5.80
   5   4  11    6.60    6.60
   5   4  11   12.20    7.10
  -6  -4 -11  169.38   15.00
  -6  -4 -11  156.38   11.20
  -6  -4 -11  186.68   17.10
  -6  -4 -11  167.38   14.40
   6   4  11  181.28   16.10
   6   4  11  153.18   21.50
  -7  -4 -11   58.89    9.40
  -7  -4 -11   37.80    7.60
  -7  -4 -11   70.29   12.20
  -7  -4 -11   53.49   11.50
   7   4  11   40.50    9.70
   7   4  11   65.49   12.00
   6  -5 -11   32.10    9.20
  -6   5  11   34.00    9.70
   5  -5 -11   -2.20    2.60
   5  -5 -11    4.80    6.50
   4  -5 -11   17.80    6.30
   4  -5 -11   13.50    6.60
  -4   5  11   17.60    7.30
  -4   5  11   24.20    7.80
   3  -5 -11  118.79   10.30
   3  -5 -11  136.29    9.70
   3  -5 -11  140.69   12.90
  -3   5  11  139.49   13.60
  -3   5  11  139.69   15.80
   2  -5 -11  158.18   11.20
   2  -5 -11  161.18   12.50
   2  -5 -11  148.89    8.90
  -2   5  11  147.39   16.20
  -2   5  11  159.38   13.90
   1  -5 -11  280.57    8.40
   1  -5 -11  298.57   15.90
   1  -5 -11  275.17    8.40
   1  -5 -11  285.07   15.70
  -1   5  11  297.97   19.40
  -1   5  11  287.27   20.50
   0  -5 -11   39.40    6.50
   0  -5 -11   48.50    7.50
   0  -5 -11   56.39    8.60
   0   5  11   45.70    9.50
   0   5  11   59.19    9.40
  -1  -5 -11    3.60    4.40
  -1  -5 -11   -4.00    5.20
  -1  -5 -11    4.70    4.50
   1   5  11   -9.10    3.40
   1   5  11   -0.70    4.60
  -2  -5 -11   48.50    7.40
  -2  -5 -11   55.49    8.00
  -2  -5 -11   70.29   10.00
  -2  -5 -11   59.79    4.80
   2   5  11   60.99   10.70
   2   5  11   77.29   11.00
  -3  -5 -11  208.38   15.50
  -3  -5 -11  185.88   10.60
  -3  -5 -11  197.58   12.90
   3   5  11  203.78   17.90
   3   5  11  207.48   15.90
  -4  -5 -11  134.49   14.80
  -4  -5 -11  112.29   10.70
  -4  -5 -11  125.49   11.50
   4   5  11   82.19   12.30
   4   5  11  116.29   12.50
  -5  -5 -11  160.78   13.30
  -5  -5 -11  166.58   15.20
  -5  -5 -11  172.58   13.30
   5   5  11  161.28   17.10
   5   5  11  151.18   14.70
  -6  -5 -11    5.20    5.70
  -6  -5 -11    8.00    5.60
  -6  -5 -11   -4.00    5.90
   6   5  11    6.30    7.40
   6   5  11   20.70    6.50
  -7  -5 -11    7.30    5.80
  -7  -5 -11    6.20    6.40
   7   5  11    1.90    5.50
   5  -6 -11   95.99   11.20
  -5   6  11   83.89   12.90
   4  -6 -11   24.00    7.30
   4  -6 -11   11.00    5.50
   4  -6 -11    9.30    3.40
  -4   6  11    8.40    6.20
  -4   6  11   10.40    7.50
   3  -6 -11   45.70    7.40
  -3   6  11   41.80   10.00
  -3   6  11   43.30    9.30
   2  -6 -11    9.30    5.00
   2  -6 -11    0.50    3.70
   2  -6 -11    1.60    5.00
  -2   6  11    2.90    5.50
  -2   6  11   -6.10    4.60
   1  -6 -11  100.79   10.10
   1  -6 -11  112.29    9.50
   1  -6 -11  115.69    9.10
  -1   6  11  112.29   13.20
  -1   6  11   90.59   12.60
   0  -6 -11   45.60    6.90
   0  -6 -11   47.90    8.40
   0   6  11   53.39    8.70
   0   6  11   44.70    9.30
  -1  -6 -11   80.49   10.40
  -1  -6 -11   96.89    8.90
  -1  -6 -11  101.89    8.70
   1   6  11  101.29   13.10
   1   6  11   85.99   10.10
  -2  -6 -11   76.39    7.90
  -2  -6 -11   75.59    4.90
  -2  -6 -11   61.39    9.50
   2   6  11   64.59   10.70
   2   6  11   75.49   10.80
  -3  -6 -11    5.30    3.70
  -3  -6 -11    4.00    4.00
  -3  -6 -11   10.80    5.80
   3   6  11   10.00    6.70
   3   6  11   16.30    7.20
  -4  -6 -11    4.60    4.50
  -4  -6 -11    1.60    3.90
  -4  -6 -11    2.20    4.10
  -4  -6 -11   -1.20    4.90
   4   6  11    2.00    5.20
   4   6  11    2.50    6.30
  -5  -6 -11   29.70    6.60
  -5  -6 -11    8.70    6.70
  -5  -6 -11   25.80    6.40
   5   6  11   34.00    9.00
  -6  -6 -11   22.20    7.80
  -6  -6 -11   17.50    6.80
  -6  -6 -11   19.90    7.50
   6   6  11   25.80    9.50
   6   6  11   28.00    8.10
   5  -7 -11    3.20    5.60
  -5   7  11    7.10    6.30
  -5   7  11   -2.60    5.60
   4  -7 -11  110.39   10.40
   4  -7 -11  110.39    6.60
  -4   7  11  100.79   14.30
  -4   7  11  104.49   11.90
   3  -7 -11    0.90    4.60
   3  -7 -11   -6.60    4.20
   3  -7 -11    6.30    6.70
   3  -7 -11   -5.90    3.10
  -3   7  11    1.70    6.40
  -3   7  11    0.50    5.90
   2  -7 -11  305.77   13.80
   2  -7 -11  284.97    8.00
   2  -7 -11  299.07   13.90
   2  -7 -11  312.97   13.70
  -2   7  11  302.17   18.50
  -2   7  11  316.47   23.30
   1  -7 -11   26.30    4.90
   1  -7 -11   21.60    4.90
   1  -7 -11   19.00    5.50
  -1   7  11   24.90    8.70
  -1   7  11   21.60    7.10
   0  -7 -11   13.70    4.40
   0  -7 -11   13.00    5.10
   0  -7 -11   13.10    3.90
   0   7  11    7.00    7.80
   0   7  11    8.20    5.10
  -1  -7 -11    6.80    4.10
  -1  -7 -11    3.30    5.10
   1   7  11    1.60    5.60
   1   7  11   12.90    6.20
  -2  -7 -11  308.27   10.60
  -2  -7 -11  321.07   14.60
  -2  -7 -11  349.47   18.90
  -2  -7 -11  305.47   13.00
   2   7  11  329.87   22.60
   2   7  11  294.27   18.30
  -3  -7 -11   17.80    4.30
  -3  -7 -11    9.20    4.40
  -3  -7 -11    3.40    5.20
   3   7  11   20.70    7.00
   3   7  11    5.50    6.40
  -4  -7 -11  265.47   12.70
  -4  -7 -11  276.67   12.30
  -4  -7 -11  283.37   14.50
  -4  -7 -11  286.77   18.20
   4   7  11  250.27   17.60
   4   7  11  293.07   22.40
  -5  -7 -11   -1.90    4.10
  -5  -7 -11    2.80    5.80
  -5  -7 -11    2.00    5.60
   5   7  11   12.20    7.30
   5   7  11   15.20    6.10
  -6  -7 -11    3.50    5.50
  -6  -7 -11   -7.70    4.40
  -6  -7 -11   -4.40    5.00
   6   7  11    3.90    7.20
   6   7  11    1.60    5.60
   4  -8 -11   79.59    8.60
  -4   8  11   94.39   11.80
  -4   8  11   78.69   13.00
   3  -8 -11    5.40    4.40
   3  -8 -11   12.30    3.60
  -3   8  11    6.20    5.90
  -3   8  11    6.80    5.80
   2  -8 -11   41.60    5.20
   2  -8 -11   31.10    6.10
  -2   8  11   42.30    8.20
  -2   8  11   50.89   13.20
   1  -8 -11   -0.70    2.10
   1  -8 -11   -0.80    2.10
   1  -8 -11    0.60    4.10
  -1   8  11  -10.70    5.30
  -1   8  11    2.00    5.10
   0   8  11  232.28   21.00
   0   8  11  262.87   17.00
  -1  -8 -11   20.90    6.30
   1   8  11   23.70    7.70
   1   8  11   12.50    6.90
  -2  -8 -11   98.19   11.10
  -2  -8 -11  112.59    7.30
   2   8  11  122.59   11.70
   2   8  11  131.99   16.00
  -3  -8 -11    3.10    3.60
  -3  -8 -11   -4.20    4.60
   3   8  11    5.50    6.90
   3   8  11    3.50    5.80
  -4  -8 -11   82.99    9.10
  -4  -8 -11   98.49   12.70
   4   8  11   89.89   11.20
   4   8  11   73.19   12.70
  -5  -8 -11   -3.30    5.30
  -5  -8 -11   15.30    7.70
   5   8  11    9.00    7.80
   5   8  11    3.30    4.80
  -4   9  11    7.00    5.40
   3  -9 -11   86.19    7.50
  -3   9  11  100.89   12.20
  -3   9  11  103.59   15.30
   2  -9 -11   -1.00    4.10
  -2   9  11    0.50    5.80
  -2   9  11    4.80    5.20
   1  -9 -11   55.59    7.90
  -1   9  11   51.09   10.80
  -1   9  11   78.19   10.80
   0  -9 -11    2.20    5.00
   0   9  11   -1.90    4.70
  -1  -9 -11    7.20    5.00
   1   9  11    3.80    6.50
  -2  -9 -11   -5.70    3.20
   2   9  11    0.00    7.20
   2   9  11    8.00    6.30
  -3  -9 -11   61.69   10.20
  -3  -9 -11   67.39    8.20
   3   9  11   76.49   12.90
   3   9  11   61.59   10.20
  -4  -9 -11  -11.90    5.00
  -4  -9 -11    0.50    5.50
   4   9  11   17.50    8.20
   4   9  11  -12.70    5.10
  -5  -9 -11   22.60    8.30
  -5  -9 -11   24.30    7.20
   5   9  11   44.00    8.50
   2 -10 -11   28.90    6.80
  -2  10  11   52.69    9.40
  -2  10  11   33.40   10.20
  -1  10  11  108.99   14.90
  -1  10  11  118.19   12.30
   0 -10 -11  169.98   12.90
   0  10  11  148.69   12.80
   0  10  11  152.48   18.90
  -1 -10 -11   35.30    6.80
   1  10  11   26.20    8.90
   1  10  11   41.30    9.90
  -2 -10 -11   26.60    6.90
   2  10  11   16.40    6.30
   2  10  11   24.90    8.80
  -3 -10 -11   16.90    6.40
  -3 -10 -11   23.40    8.10
   3  10  11   17.40    6.40
   3  10  11   19.50    8.10
   0 -11 -11   11.40    5.30
   0  11  11   14.00    5.90
  -1 -11 -11   18.10    6.20
   1  11  11   19.30    7.50
   2   5 -12   52.99   10.80
  -2  -5  12   46.50    9.90
   1   5 -12   -2.50    4.70
   1   5 -12    1.40    6.30
   0   5 -12   -1.20    5.10
   0  -5  12   -3.10    6.70
  -1   5 -12   49.30   13.20
  -1   5 -12   48.90   11.40
   1  -5  12   47.50    9.00
   1  -5  12   49.80    7.20
  -2   5 -12   74.29   12.60
   2  -5  12   20.00    7.00
  -3   5 -12   20.80    9.70
   3  -5  12   48.60   10.80
   3  -5  12   26.30    7.60
  -3  -4  12   -5.70    6.30
   2   4 -12  117.19   13.70
   2   4 -12   96.59   13.50
  -2  -4  12   72.49    8.10
   1   4 -12   41.40    8.40
   1   4 -12   32.70    8.70
  -1  -4  12   34.00    7.80
  -1  -4  12   29.40    5.90
   0   4 -12   62.89   10.30
   0   4 -12   70.39   12.10
   0  -4  12   97.49   12.90
   0  -4  12   50.29    6.90
  -1   4 -12   20.70    8.40
  -1   4 -12   22.40    7.00
   1  -4  12   11.90    5.70
   1  -4  12   -1.30    5.00
  -2   4 -12   -5.40    4.80
  -2   4 -12   -5.80    6.00
   2  -4  12    1.90    4.90
   2  -4  12    1.80    5.80
  -3   4 -12   -2.00    5.70
  -3   4 -12   -0.60    6.50
   3  -4  12   -6.30    5.10
  -4   4 -12  123.79   15.10
   4  -4  12  110.49   13.40
   4  -4  12   83.39   13.10
  -4  -3  12   30.10    7.50
  -4  -3  12   44.30   10.00
   3   3 -12    3.90    6.60
  -3  -3  12   13.10    8.00
  -3  -3  12   -4.40    3.70
   2   3 -12    1.10    6.50
   2   3 -12    6.00    5.40
  -2  -3  12   -4.90    4.40
  -2  -3  12    5.30    6.50
   1   3 -12    1.30    6.00
   1   3 -12   -2.00    5.90
  -1  -3  12    6.00    5.80
  -1  -3  12   -5.60    3.80
   0   3 -12   78.29   10.90
   0  -3  12   64.59    8.30
   0  -3  12  104.39   12.80
  -1   3 -12   35.60    8.20
  -1   3 -12   43.90   10.80
   1  -3  12   22.10    6.60
   1  -3  12   23.30    7.70
  -2   3 -12   37.40    9.20
   2  -3  12   49.60   10.30
   2  -3  12   50.29    8.70
  -3   3 -12   -3.70    6.10
  -3   3 -12   10.60    7.00
   3  -3  12   16.60    5.60
  -4   3 -12   35.60    9.10
  -4   3 -12   16.60    6.70
   4  -3  12   13.20    8.70
   4  -3  12   10.70    7.50
  -5   3 -12   -9.00    5.30
   5  -3  12   -2.00    5.90
   5  -3  12   -2.70    6.70
   4   2 -12    6.00    6.40
  -4  -2  12   -9.30    4.80
  -4  -2  12   -3.80    6.50
   3   2 -12  107.09   14.30
  -3  -2  12   87.79   10.60
  -3  -2  12   93.39   16.10
   2   2 -12   10.20    6.80
  -2  -2  12    4.50    4.50
  -2  -2  12   14.30    6.50
   1   2 -12  296.47   19.90
   1   2 -12  254.07   13.90
   1   2 -12  252.17   17.00
  -1  -2  12  279.67   18.50
  -1  -2  12  246.28   15.00
   0   2 -12   13.80    7.10
   0   2 -12    8.10    5.40
   0   2 -12   15.00    5.50
   0  -2  12   14.20    6.50
   0  -2  12   16.80    5.90
  -1   2 -12   -1.20    6.30
  -1   2 -12    0.60    5.30
   1  -2  12    6.90    5.00
   1  -2  12    2.20    5.80
  -2   2 -12    3.00    5.70
  -2   2 -12    9.90    6.20
   2  -2  12   -4.80    5.20
   2  -2  12    3.20    4.20
  -3   2 -12  148.49   13.40
  -3   2 -12  148.99   18.50
   3  -2  12  153.48   15.90
   3  -2  12  122.09   12.90
  -4   2 -12   17.90    6.50
  -4   2 -12   13.10    6.40
   4  -2  12   12.80    6.20
   4  -2  12   17.70    8.00
  -5   2 -12  149.49   15.50
  -5   2 -12  115.09   14.70
   5  -2  12  124.89   15.00
   5  -2  12  146.19   14.60
  -5  -1  12   67.89    8.70
  -5  -1  12   79.39   11.20
   4   1 -12   62.99   11.60
  -4  -1  12   57.49   10.80
  -4  -1  12   44.00    8.70
  -3  -1  12   51.59    8.60
   2   1 -12   13.00    6.30
   2   1 -12   -2.90    4.50
  -2  -1  12    6.00    6.20
  -2  -1  12    4.20    4.80
   1   1 -12   47.70    9.90
   1   1 -12   21.30    5.30
  -1  -1  12   37.30    7.00
  -1  -1  12   31.80    8.20
   0   1 -12   70.09    8.00
   0   1 -12   81.09   11.60
   0   1 -12   72.99    9.80
   0  -1  12   83.79   11.40
   0  -1  12   55.09    8.80
  -1   1 -12  172.38   16.30
  -1   1 -12  185.48   12.00
  -1   1 -12  157.98   13.00
   1  -1  12  168.48   15.30
   1  -1  12  202.98   15.30
  -2   1 -12   40.80    7.90
  -2   1 -12   65.89   10.70
   2  -1  12   34.40    8.10
   2  -1  12   51.39    9.60
  -3   1 -12   23.90    8.70
  -3   1 -12    4.60    6.00
   3  -1  12   12.10    6.80
   3  -1  12   28.50    8.30
  -4   1 -12    2.20    4.90
   4  -1  12    6.50    6.80
  -5   1 -12   30.30    9.70
  -5   1 -12   11.00    5.90
   5  -1  12   14.50    8.80
   5  -1  12   36.70    9.20
  -6   1 -12   41.70   10.80
  -6   1 -12   24.40    9.00
   5   0 -12  -16.70    6.80
  -5   0  12    9.00    8.80
  -5   0  12  -10.20    5.20
   4   0 -12    4.60    6.70
  -4   0  12    3.50    6.40
  -4   0  12   -5.30    5.50
   3   0 -12    6.00    5.40
  -3   0  12    0.90    5.20
  -3   0  12    1.30    5.20
   2   0 -12   57.19    9.70
  -2   0  12   53.09   10.50
   1   0 -12   -4.80    4.30
   1   0 -12    8.50    5.70
   1   0 -12    1.00    2.90
  -1   0  12    0.50    5.00
  -1   0  12    3.50    5.40
   0   0 -12   -2.00    3.70
   0   0 -12    2.80    4.90
   0   0 -12   -4.40    3.90
   0   0  12    1.30    4.80
   0   0  12    1.20    4.20
  -1   0 -12   -5.20    4.70
  -1   0 -12    3.80    3.70
  -1   0 -12   -1.10    4.20
   1   0  12   -8.40    4.30
   1   0  12    3.20    5.30
  -2   0 -12   40.20    6.50
  -2   0 -12   47.40    9.40
  -2   0 -12   40.50    7.10
   2   0  12   62.89   10.50
   2   0  12   47.50    8.90
  -3   0 -12   -1.20    4.90
  -3   0 -12   -3.50    4.10
   3   0  12    7.30    6.60
   3   0  12   -3.30    4.80
  -4   0 -12   75.09   11.50
  -4   0 -12  107.29   11.40
   4   0  12   93.29   12.70
   4   0  12   99.39   13.70
  -5   0 -12    7.70    6.70
   5   0  12    8.40    7.40
   5   0  12    5.90    6.80
  -6   0 -12    3.40    5.80
  -6   0 -12   10.60    6.80
   6   0  12    1.90    6.50
   6   0  12   -3.40    5.60
   5  -1 -12  166.78   17.80
  -5   1  12  115.89   15.10
  -5   1  12  147.49   16.20
  -4   1  12   10.90    6.70
  -4   1  12   13.10    8.10
   3  -1 -12   40.80    9.80
  -3   1  12   41.40    8.90
  -3   1  12   49.20   10.70
   2  -1 -12   38.80    8.80
  -2   1  12   30.30    7.70
  -2   1  12   22.30    7.00
   1  -1 -12   92.39    9.40
   1  -1 -12   87.49   11.80
  -1   1  12   89.19   11.00
  -1   1  12  100.99   12.10
   0  -1 -12   98.49   11.60
   0  -1 -12   74.29    8.80
   0   1  12   71.69   10.10
   0   1  12   70.59   10.40
  -1  -1 -12  220.78   16.50
  -1  -1 -12  222.98   10.30
  -1  -1 -12  219.98   12.70
   1   1  12  240.98   17.10
   1   1  12  235.08   16.50
  -2  -1 -12   15.50    4.30
  -2  -1 -12   13.70    6.00
  -2  -1 -12   12.60    4.70
   2   1  12   13.10    7.10
   2   1  12   22.30    7.90
  -3  -1 -12    9.20    5.10
  -3  -1 -12    5.10    4.20
  -3  -1 -12   11.60    5.90
   3   1  12    6.70    5.40
   3   1  12   13.20    5.90
  -4  -1 -12   29.10    6.50
  -4  -1 -12   40.70    8.70
   4   1  12   32.80    8.40
   4   1  12   31.80    9.00
  -5  -1 -12   82.89    9.80
  -5  -1 -12   83.39   11.70
   5   1  12   93.59   13.70
   5   1  12   75.49   12.50
  -6  -1 -12   15.70    8.90
  -6  -1 -12   15.70    9.50
  -6  -1 -12    1.40    6.70
   6   1  12   27.80   10.00
   6   1  12   30.80   10.20
   5  -2 -12   28.60    8.50
  -5   2  12   17.10    7.00
  -5   2  12   15.70    7.80
   4  -2 -12   -4.10    5.80
  -4   2  12    7.30    8.70
  -3   2  12  329.67   22.40
  -3   2  12  274.07   19.90
   2  -2 -12   -4.00    4.10
   2  -2 -12    6.20    5.70
  -2   2  12    0.00    4.70
  -2   2  12   15.30    6.90
   1  -2 -12  124.29   10.00
   1  -2 -12  128.29   13.00
  -1   2  12  147.59   13.40
  -1   2  12  144.49   13.80
   0  -2 -12    2.50    3.90
   0  -2 -12   15.40    6.90
   0   2  12    5.00    5.50
   0   2  12    5.40    5.30
  -1  -2 -12   57.39   10.20
  -1  -2 -12   45.60    5.00
   1   2  12   53.49    9.90
   1   2  12   47.60   10.00
  -2  -2 -12    4.30    3.80
  -2  -2 -12   -1.10    5.60
   2   2  12    4.80    5.30
   2   2  12   -3.30    6.70
  -3  -2 -12  263.27   13.80
  -3  -2 -12  260.27   13.20
  -3  -2 -12  258.27   17.60
   3   2  12  290.97   19.80
   3   2  12  292.47   20.50
  -4  -2 -12    4.50    4.10
  -4  -2 -12   -0.10    4.50
   4   2  12    4.00    6.00
   4   2  12    2.10    6.00
  -5  -2 -12   93.59   12.30
  -5  -2 -12   54.09    7.40
   5   2  12   64.89   11.70
  -6  -2 -12   -1.50    6.10
  -6  -2 -12  -10.80    5.30
   6   2  12    5.20    6.30
   6   2  12   -5.00    7.90
  -5   3  12   -6.60    5.90
  -5   3  12   -2.90    6.00
   4  -3 -12   21.70    7.40
  -4   3  12    5.90    8.10
  -4   3  12    7.60    6.30
   3  -3 -12    0.20    5.80
  -3   3  12   -9.00    6.70
  -3   3  12    0.30    5.90
   2  -3 -12   54.09    9.40
  -2   3  12   61.09   10.50
  -2   3  12   70.19   11.30
   1  -3 -12   45.70    6.20
   1  -3 -12   55.49    9.20
  -1   3  12   53.99    9.60
  -1   3  12   51.79   10.60
   0  -3 -12  158.58   14.10
   0  -3 -12  143.49    8.70
   0  -3 -12  128.79    8.50
   0   3  12  131.79   13.80
   0   3  12  144.49   13.90
  -1  -3 -12   32.40    7.60
  -1  -3 -12   27.20    4.20
   1   3  12   24.30    7.10
   1   3  12   41.50    9.40
  -2  -3 -12   17.30    3.90
  -2  -3 -12    8.80    3.10
  -2  -3 -12   18.80    7.30
   2   3  12   22.60    7.70
   2   3  12   13.50    7.30
  -3  -3 -12   22.60    7.20
  -3  -3 -12   20.80    7.20
  -3  -3 -12    9.70    3.50
   3   3  12   14.40    6.40
   3   3  12   11.30    6.60
  -4  -3 -12   31.20    7.70
  -4  -3 -12   28.70    4.70
  -4  -3 -12   11.60    7.00
   4   3  12   24.10    7.50
   4   3  12   24.30    9.20
  -5  -3 -12   31.60    8.10
  -5  -3 -12   14.20    8.40
   5   3  12   26.70    9.50
  -6  -3 -12   42.80    9.60
  -6  -3 -12   46.20    9.10
   6   3  12   39.50   10.70
   6   3  12   16.60    8.10
   5  -4 -12    6.30    5.70
  -5   4  12   -4.70    5.90
  -5   4  12   -5.30    5.10
   4  -4 -12  148.59   14.40
  -4   4  12  167.18   17.00
   3  -4 -12   34.20    6.80
   3  -4 -12   44.70   10.50
  -3   4  12   37.50   10.90
  -3   4  12   42.10   10.30
   2  -4 -12   96.89   11.60
   2  -4 -12   74.59    8.60
  -2   4  12  107.99   13.50
  -2   4  12   64.49   11.50
   1  -4 -12   16.00    6.80
   1  -4 -12   22.00    4.30
   1  -4 -12   19.50    3.60
  -1   4  12   19.80    7.20
  -1   4  12   21.80    8.40
   0  -4 -12    1.00    2.00
   0  -4 -12   -0.90    5.30
   0  -4 -12    4.60    2.40
   0   4  12    6.50    5.90
   0   4  12   12.30    7.00
  -1  -4 -12   20.90    6.40
  -1  -4 -12   27.70    7.10
   1   4  12   27.50    7.60
   1   4  12   22.30    6.90
  -2  -4 -12  243.38   16.20
  -2  -4 -12  220.98    7.90
  -2  -4 -12  227.88   16.60
  -2  -4 -12  209.38    8.20
   2   4  12  227.58   17.50
   2   4  12  224.88   18.10
  -3  -4 -12   40.60    5.70
  -3  -4 -12   53.09    8.70
  -3  -4 -12   31.30    7.80
   3   4  12   39.80    8.90
   3   4  12   39.90    8.80
  -4  -4 -12  105.89   14.00
  -4  -4 -12  129.49   12.70
  -4  -4 -12  116.59    6.30
  -4  -4 -12  119.99   10.00
   4   4  12  128.39   15.80
   4   4  12  130.69   15.10
  -5  -4 -12   27.10    6.90
  -5  -4 -12   17.20    7.50
  -5  -4 -12    9.30    4.10
  -5  -4 -12   15.10    6.30
   5   4  12   35.30   12.20
   5   4  12   30.10    8.70
  -6  -4 -12   17.90    7.50
  -6  -4 -12   14.20    7.40
  -6  -4 -12   18.30    7.40
   6   4  12    3.50    7.30
   6   4  12   11.90    8.10
   5  -5 -12   35.60    8.90
  -5   5  12   38.60   10.20
  -5   5  12   47.70    9.90
   4  -5 -12   -3.00    4.20
   4  -5 -12    7.50    5.10
   3  -5 -12    0.30    5.10
   3  -5 -12   17.50    5.10
   3  -5 -12   13.30    6.70
  -3   5  12    8.60    8.20
  -3   5  12   17.00    9.00
   2  -5 -12   53.89    7.70
   2  -5 -12   53.89    9.00
   2  -5 -12   45.10    5.70
  -2   5  12   46.80    9.60
  -2   5  12   54.79    9.90
   1  -5 -12  146.59   12.90
   1  -5 -12  145.29    5.80
   1  -5 -12  158.18   14.80
   1  -5 -12  152.38    5.70
  -1   5  12  179.38   15.30
  -1   5  12  149.69   15.60
   0  -5 -12  121.09   11.40
   0  -5 -12  119.09   11.80
   0   5  12  120.09   12.40
   0   5  12  133.59   14.20
  -1  -5 -12   63.09    9.60
  -1  -5 -12   53.49    8.60
   1   5  12   62.69    9.90
   1   5  12   54.99   10.20
  -2  -5 -12   16.00    5.40
  -2  -5 -12    3.50    6.00
   2   5  12   -2.20    5.80
   2   5  12   21.50    7.50
  -3  -5 -12   50.19    9.30
  -3  -5 -12   60.89    6.50
   3   5  12   61.69   11.40
   3   5  12   68.39   11.90
  -4  -5 -12   45.20    7.00
  -4  -5 -12   71.79    9.60
  -4  -5 -12   58.49   10.60
   4   5  12   59.49   11.30
   4   5  12   57.89   10.80
  -5  -5 -12  139.79   12.40
  -5  -5 -12  134.09   14.70
  -5  -5 -12  147.99   13.10
   5   5  12  145.59   15.70
   5   5  12  134.09   17.10
  -6  -5 -12  105.79   11.60
  -6  -5 -12   77.89   11.40
   6   5  12   87.59   16.20
   6   5  12   99.59   13.70
   4  -6 -12   15.50    5.30
   4  -6 -12    1.60    4.90
  -4   6  12   -0.40    5.40
   3  -6 -12  117.99   11.10
   3  -6 -12  124.89   10.00
  -3   6  12  122.99   14.20
   2  -6 -12   19.00    6.20
   2  -6 -12   17.00    5.50
   2  -6 -12   13.90    3.70
  -2   6  12   28.10    8.50
  -2   6  12   10.80    6.80
   1  -6 -12   11.30    5.20
   1  -6 -12    2.30    4.90
  -1   6  12    4.50    5.90
  -1   6  12    1.80    7.50
   0  -6 -12    1.50    4.50
   0  -6 -12    7.00    5.30
   0  -6 -12  -10.90    4.30
   0   6  12   -0.10    5.10
   0   6  12   -7.00    4.80
  -1  -6 -12   58.59    9.90
  -1  -6 -12   88.99    9.30
  -1  -6 -12   80.29    9.00
   1   6  12  100.89   12.40
   1   6  12   77.69   12.30
  -2  -6 -12   12.60    5.80
  -2  -6 -12   18.20    8.00
  -2  -6 -12   15.60    5.30
   2   6  12    9.30    6.90
   2   6  12   31.20    7.40
  -3  -6 -12   33.80    4.80
  -3  -6 -12   17.00    6.80
  -3  -6 -12   27.50    6.00
   3   6  12   29.80    9.40
   3   6  12   26.30    7.60
  -4  -6 -12   35.60    7.30
  -4  -6 -12   22.80    8.70
  -4  -6 -12   35.70    6.20
   4   6  12   29.30    9.60
   4   6  12   28.00    7.70
  -5  -6 -12   -1.90    4.70
  -5  -6 -12    2.90    5.50
  -5  -6 -12   -7.10    6.30
   5   6  12   11.90    7.10
   5   6  12   -0.80    6.90
  -6  -6 -12    7.50    5.30
  -6  -6 -12   -1.80    6.60
   6   6  12    3.50    6.10
   4  -7 -12    1.80    5.10
  -4   7  12    2.20    6.10
  -4   7  12    7.60    8.70
   3  -7 -12   -6.00    4.90
   3  -7 -12   -4.10    3.70
  -3   7  12   -9.50    8.20
  -3   7  12    6.10    6.10
   2  -7 -12  197.38   15.30
   2  -7 -12  205.88   12.30
   2  -7 -12  219.08   13.20
  -2   7  12  222.98   17.30
  -2   7  12  137.49   20.90
   1  -7 -12   -6.20    4.10
   1  -7 -12   12.80    5.20
  -1   7  12   -0.70    4.50
  -1   7  12    0.50    6.10
   0  -7 -12  251.57   11.90
   0  -7 -12  263.87   12.80
   0   7  12  234.58   16.00
   0   7  12  230.68   19.60
  -1  -7 -12   -1.20    4.50
  -1  -7 -12   -1.50    4.10
  -1  -7 -12   -2.90    3.40
   1   7  12   -1.50    6.80
   1   7  12    3.60    5.50
  -2  -7 -12    9.50    4.20
  -2  -7 -12   -6.00    5.20
  -2  -7 -12   -2.50    5.70
   2   7  12    1.20    4.60
   2   7  12   -4.60    8.50
  -3  -7 -12   -1.20    3.20
  -3  -7 -12   -1.50    3.70
  -3  -7 -12   -1.10    4.90
   3   7  12    4.20    7.10
   3   7  12   -1.60    5.10
  -4  -7 -12  209.78   11.90
  -4  -7 -12  236.48   21.40
  -4  -7 -12  195.98   12.30
   4   7  12  200.38   16.10
   4   7  12  214.38   19.90
  -5  -7 -12   -1.00    4.90
  -5  -7 -12   -2.70    5.20
  -5  -7 -12    1.50    6.00
   5   7  12   -7.50    5.00
   5   7  12   -4.00    6.80
   3  -8 -12   -7.90    4.10
   3  -8 -12   -3.40    4.90
  -3   8  12   18.80    7.20
  -3   8  12   -8.50    7.10
   2  -8 -12   -2.90    3.90
   2  -8 -12   -0.20    4.20
  -2   8  12  -14.60    5.40
  -2   8  12   17.10    7.10
   1  -8 -12   16.50    6.30
  -1   8  12    0.60    5.90
  -1   8  12   -2.90    5.40
   0  -8 -12  112.39   11.80
   0  -8 -12  109.39    6.30
   0   8  12   94.19   14.90
   0   8  12  129.59   12.00
  -1  -8 -12   12.40    6.10
  -1  -8 -12    4.50    2.80
   1   8  12    7.30    6.20
   1   8  12   21.40    6.60
  -2  -8 -12  204.78    7.20
   2   8  12  219.98   19.90
   2   8  12  213.28   15.30
  -3  -8 -12    0.20    3.90
  -3  -8 -12   10.30    6.30
   3   8  12    7.30    5.80
   3   8  12   -3.10    6.00
  -4  -8 -12    5.20    6.00
  -4  -8 -12    4.20    4.00
   4   8  12    3.80    6.40
   4   8  12   -3.90    4.70
   2  -9 -12    2.70    4.70
  -2   9  12   30.20    8.30
   1  -9 -12   41.00    7.40
  -1   9  12   37.50   11.00
  -1   9  12   67.19   11.30
   0  -9 -12   -8.20    4.80
   0   9  12    2.10    6.10
   0   9  12    4.20    4.60
  -1  -9 -12   -5.10    4.60
   1   9  12    1.70    5.50
   1   9  12   -1.00    5.50
  -2  -9 -12    1.00    5.30
   2   9  12    8.30    7.30
   2   9  12    6.70    5.90
  -3  -9 -12   40.30    8.00
   3   9  12   43.60   11.90
   3   9  12   26.70    8.10
   0 -10 -12   69.19   10.00
   0  10  12   84.19   10.60
  -1 -10 -12  110.99   12.00
   1  10  12  137.79   12.10
   0   4 -13   48.90   12.00
   0  -4  13   41.00    8.00
   0  -4  13   70.79   11.20
  -1   4 -13   -0.70    6.20
   1  -4  13   12.40    6.40
   1  -4  13    5.40    6.60
   2   3 -13   -0.30    6.20
  -2  -3  13   34.50    7.30
  -2  -3  13   -8.10    6.10
   1   3 -13    1.90    7.30
   1   3 -13   -3.40    4.20
  -1  -3  13   -7.70    4.30
  -1  -3  13   11.30    6.20
   0   3 -13   43.60    9.50
   0   3 -13   52.49    8.90
   0  -3  13   60.69   10.70
  -1   3 -13   14.40    6.70
  -1   3 -13   19.20    8.20
   1  -3  13   12.30    6.30
   1  -3  13   12.70    7.80
  -2   3 -13   71.89   13.70
  -2   3 -13   59.79   10.00
   2  -3  13   49.40    8.70
   2  -3  13   78.69   11.80
  -3   3 -13  -15.40    5.90
   3  -3  13    6.10    6.20
   3  -3  13   12.10    6.70
  -3  -2  13   -0.90    5.20
   2   2 -13   14.90    6.90
   2   2 -13   17.50    7.30
  -2  -2  13    0.90    5.40
  -2  -2  13    0.70    5.80
   1   2 -13   58.09   10.80
   1   2 -13   82.59   11.00
  -1  -2  13   99.39   11.00
  -1  -2  13   78.29   12.60
   0   2 -13   -5.60    5.30
   0   2 -13   -0.30    7.00
   0  -2  13    2.10    4.60
   0  -2  13   -4.00    5.40
  -1   2 -13  119.29   13.70
  -1   2 -13   83.09   11.10
   1  -2  13  104.39   12.90
   1  -2  13   87.79   12.70
  -2   2 -13   24.20    7.40
  -2   2 -13   10.50    6.70
   2  -2  13    8.60    5.80
   2  -2  13   15.30    7.50
  -3   2 -13    0.90    6.20
  -3   2 -13    4.20    8.10
   3  -2  13    1.90    5.10
   3  -2  13  -11.60    5.60
  -4   2 -13    2.20    5.40
   4  -2  13    8.50    8.10
   4  -2  13   -3.50    6.10
   3   1 -13   83.49   13.50
  -3  -1  13   78.19   10.30
  -3  -1  13   90.09   13.00
   2   1 -13   13.30    6.90
   2   1 -13    9.60    8.20
  -2  -1  13    9.10    5.90
  -2  -1  13   14.80    7.90
   1   1 -13   30.40    9.50
   1   1 -13   21.50    6.80
  -1  -1  13   48.10    8.00
  -1  -1  13   34.40    8.20
   0   1 -13   13.30    5.90
   0   1 -13   15.30    7.40
   0  -1  13   12.30    6.20
  -1   1 -13   60.19    9.10
  -1   1 -13   71.29    8.50
  -1   1 -13   59.89   13.00
   1  -1  13   58.59    9.30
  -2   1 -13   65.29    8.90
  -2   1 -13   88.39   12.80
   2  -1  13   72.29   10.80
   2  -1  13   73.49   11.50
  -3   1 -13  103.69   12.20
  -3   1 -13   90.79   12.80
   3  -1  13   94.99   13.40
   3  -1  13   53.99   10.20
  -4   1 -13   16.50    7.40
  -4   1 -13    4.70    5.10
   4  -1  13    3.00    7.90
   4  -1  13   10.10    6.70
  -5   1 -13   -1.00    6.50
  -4   0  13    2.90    7.00
   3   0 -13    1.50    6.00
  -3   0  13  -12.00    5.10
  -3   0  13    2.10    4.90
   2   0 -13   77.89   12.70
  -2   0  13  115.39   14.40
  -2   0  13   81.29   10.40
   1   0 -13   -4.00    4.10
  -1   0  13    4.00    4.70
   0   0 -13   20.90    8.80
   0   0 -13    2.00    5.10
   0   0 -13   10.10    4.80
   0   0  13   11.50    5.70
  -1   0 -13   10.10    4.80
  -1   0 -13    2.00    5.00
  -1   0 -13  -12.50    6.60
   1   0  13   -0.60    5.40
   1   0  13    4.10    6.60
  -2   0 -13    1.00    4.60
  -2   0 -13   -5.90    5.50
  -2   0 -13   -0.90    5.50
   2   0  13   -0.20    5.10
  -3   0 -13  -10.60    4.30
   3   0  13   -9.20    4.80
   3   0  13    9.30    6.60
  -4   0 -13   68.79   11.50
  -4   0 -13   61.09    9.00
   4   0  13   46.10   11.00
   4   0  13   67.69   11.90
  -5   0 -13    9.20    5.90
  -5   0 -13   -5.10    5.30
   4  -1 -13   57.79   10.70
  -4   1  13   28.20    9.50
   3  -1 -13   86.39   12.00
  -3   1  13  136.49   16.20
  -3   1  13   81.39   11.90
   2  -1 -13    1.70    6.00
  -2   1  13   -8.50    5.20
  -2   1  13   15.90    7.30
   1  -1 -13   22.10    6.70
   1  -1 -13   12.30    5.10
  -1   1  13   10.60    6.00
   0  -1 -13   44.80    7.40
   0  -1 -13   62.59   10.40
   0   1  13   65.99   10.20
   0   1  13   67.09   10.80
  -1  -1 -13  119.09   13.90
  -1  -1 -13  115.89    8.20
  -1  -1 -13  110.19   10.80
   1   1  13  142.09   13.90
   1   1  13  119.89   13.20
  -2  -1 -13   82.19    8.50
  -2  -1 -13   77.49    9.80
  -2  -1 -13   81.19   11.60
   2   1  13   68.19   13.80
   2   1  13   66.49   10.80
  -3  -1 -13  124.79   14.50
  -3  -1 -13   96.69   10.70
  -3  -1 -13   98.19    9.80
   3   1  13   86.09   11.80
   3   1  13  109.49   17.60
  -4  -1 -13  -12.50    4.40
   4   1  13   -4.70    5.50
   4   1  13    1.00    6.80
  -5  -1 -13    4.10    6.30
  -5  -1 -13    4.50    8.00
   5   1  13    5.60    7.90
   5   1  13   16.40    8.60
   4  -2 -13    0.50    5.70
  -4   2  13   -4.30    7.00
  -3   2  13   61.49   11.90
  -3   2  13   62.39   10.50
   2  -2 -13   15.20    7.60
  -2   2  13  -10.50    5.60
   1  -2 -13  233.68   17.30
   1  -2 -13  215.48   14.30
   1  -2 -13  231.98   12.80
  -1   2  13  237.08   24.40
  -1   2  13  257.27   19.40
   0  -2 -13    4.20    4.00
   0  -2 -13    2.90    6.10
   0   2  13    4.20    5.30
   0   2  13   -9.30    5.70
  -1  -2 -13    8.80    6.00
  -1  -2 -13   11.50    2.70
  -1  -2 -13   13.70    4.30
   1   2  13   30.80    8.20
   1   2  13   23.80    8.10
  -2  -2 -13   -0.40    3.50
  -2  -2 -13   20.50    7.70
  -2  -2 -13    0.50    4.10
   2   2  13   -5.80    5.00
   2   2  13   -8.10    4.40
  -3  -2 -13  103.29   12.60
  -3  -2 -13  108.39    9.50
   3   2  13  111.59   13.90
  -4  -2 -13   -8.80    3.80
  -4  -2 -13   -1.80    4.60
   4   2  13    1.90    6.60
   4   2  13   12.50    7.00
  -5  -2 -13  126.39   15.30
  -5  -2 -13  121.69   11.70
  -5  -2 -13  141.59   15.70
   5   2  13  122.59   16.30
   5   2  13  104.29   14.60
   4  -3 -13   32.80    8.40
  -4   3  13   52.09   12.80
  -4   3  13   37.90    9.50
   3  -3 -13  -11.50    4.70
  -3   3  13   -7.10    6.60
  -3   3  13   13.40    8.30
   2  -3 -13  -16.70    5.70
   2  -3 -13    5.00    5.30
  -2   3  13  -14.80    5.20
   1  -3 -13   -1.50    3.60
   1  -3 -13    2.50    4.90
   1  -3 -13    4.00    4.50
  -1   3  13    0.30    4.60
  -1   3  13    6.90    8.00
   0  -3 -13   94.69   11.80
   0  -3 -13   67.09    7.20
   0  -3 -13   78.09    7.10
   0   3  13   85.99   12.10
   0   3  13   71.19   11.10
  -1  -3 -13   24.90    4.10
  -1  -3 -13   43.00    8.80
   1   3  13   23.60    7.40
   1   3  13   25.40    8.30
  -2  -3 -13   42.80    5.20
  -2  -3 -13   54.09    6.10
  -2  -3 -13   54.09   10.00
   2   3  13   60.99   10.30
   2   3  13   73.89   11.70
  -3  -3 -13  -10.90    5.40
  -3  -3 -13    2.70    6.40
  -3  -3 -13  -11.20    5.40
  -3  -3 -13   -7.60    2.80
   3   3  13   -1.70    5.50
   3   3  13    3.00    5.80
  -4  -3 -13   -1.70    5.80
  -4  -3 -13   -3.00    6.00
  -4  -3 -13   -3.00    3.80
   4   3  13    7.60    6.60
  -5  -3 -13    7.90    4.90
  -5  -3 -13   10.50    6.60
  -5  -3 -13   27.80    8.20
   5   3  13   20.10    8.40
   5   3  13    3.10    7.90
   4  -4 -13    8.10    6.50
   4  -4 -13    0.30    5.50
  -4   4  13   21.70    8.10
  -4   4  13   15.70    8.60
   3  -4 -13   18.40    6.50
  -3   4  13   21.50    7.70
  -3   4  13   -6.00    6.60
   2  -4 -13  195.08   14.50
  -2   4  13  181.08   17.30
   1  -4 -13   73.69    6.70
   1  -4 -13   86.29    8.10
   1  -4 -13   91.69   12.10
  -1   4  13  117.29   13.60
  -1   4  13  111.59   13.80
   0  -4 -13   48.00    8.50
   0  -4 -13   32.10    3.80
   0  -4 -13   25.20    3.20
   0   4  13   32.90    7.70
   0   4  13   30.20    8.70
  -1  -4 -13    2.00    5.60
  -1  -4 -13    4.40    6.40
   1   4  13    5.30    6.20
   1   4  13    5.90    5.80
  -2  -4 -13   27.50    7.50
  -2  -4 -13    8.00    6.70
   2   4  13   31.50    8.50
   2   4  13   16.70    6.70
  -3  -4 -13   15.90    7.40
  -3  -4 -13   18.70    4.40
  -3  -4 -13   20.40    7.70
   3   4  13   38.20    8.90
   3   4  13   16.60    8.30
  -4  -4 -13  133.89   11.50
  -4  -4 -13  143.99   15.40
  -4  -4 -13  165.88   15.00
   4   4  13  154.58   16.30
   4   4  13  134.19   16.40
  -5  -4 -13   91.29   11.50
  -5  -4 -13   55.29   11.30
  -5  -4 -13   76.99    9.90
   5   4  13   74.79   12.70
   5   4  13   55.99   12.30
   4  -5 -13   29.50    7.10
   4  -5 -13   23.70    7.70
  -4   5  13   47.30   12.70
  -4   5  13   29.90   10.40
   3  -5 -13    9.70    6.60
   3  -5 -13   12.80    5.80
  -3   5  13    0.40    8.40
  -3   5  13    5.40    7.00
   2  -5 -13    0.90    4.30
   2  -5 -13   -6.20    2.80
  -2   5  13   -7.70    5.60
  -2   5  13    9.40    7.60
   1  -5 -13   46.00    8.80
   1  -5 -13   36.00    8.00
  -1   5  13   40.70    9.40
  -1   5  13   58.49   10.90
   0  -5 -13  105.49   11.30
   0  -5 -13   62.39    9.40
   0   5  13   63.39   12.00
   0   5  13   85.79   12.80
  -1  -5 -13  167.48   14.50
  -1  -5 -13  165.88   13.90
   1   5  13  155.18   16.30
   1   5  13  153.38   14.40
  -2  -5 -13   32.80    7.90
  -2  -5 -13   41.40    8.20
   2   5  13   54.29    9.70
   2   5  13   48.60   10.10
  -3  -5 -13    0.90    6.30
  -3  -5 -13   13.90    6.70
  -3  -5 -13   -4.00    3.20
   3   5  13    2.00    6.30
   3   5  13    4.30    7.00
  -4  -5 -13   -7.60    4.50
  -4  -5 -13   -0.20    5.20
  -4  -5 -13   -8.00    5.00
  -5  -5 -13   45.50    8.70
  -5  -5 -13   45.80    8.50
   5   5  13   46.50   11.70
   3  -6 -13   44.70    8.10
   3  -6 -13   33.10    7.50
  -3   6  13   38.20   10.90
  -3   6  13   59.39   11.10
   2  -6 -13   11.40    5.60
   2  -6 -13   -1.60    5.20
  -2   6  13    0.30    6.60
  -2   6  13   23.00    9.50
   1  -6 -13   29.30    6.90
   1  -6 -13   28.20    7.20
  -1   6  13   17.80    9.50
  -1   6  13   18.90    7.10
   0  -6 -13   -1.40    6.00
   0   6  13    8.10    6.80
  -1  -6 -13   42.60    8.70
   1   6  13   47.70    8.90
  -2  -6 -13   -4.10    5.00
   2   6  13    2.20    6.30
   2   6  13   -2.10    5.60
  -3  -6 -13   69.99   10.80
  -3  -6 -13   65.89    7.20
   3   6  13   61.69   10.50
   3   6  13   66.89   12.00
  -4  -6 -13   -5.40    5.60
  -4  -6 -13   -4.40    5.40
  -4  -6 -13   -7.40    4.20
   4   6  13   -5.50    6.00
   3  -7 -13  -16.10    5.20
  -3   7  13   13.00    7.80
   2  -7 -13   -4.40    5.00
   2  -7 -13    9.80    6.50
  -2   7  13   17.60    8.20
  -2   7  13   19.10    7.80
   1  -7 -13   -3.20    5.20
   1  -7 -13   -7.30    4.60
  -1   7  13    6.30    6.40
  -1   7  13   -1.30    6.40
   0  -7 -13  209.98   12.80
   0  -7 -13  175.28   14.30
   0   7  13  198.08   18.30
   0   7  13  166.88   14.90
  -1  -7 -13   -4.10    4.20
  -1  -7 -13   -3.60    5.00
   1   7  13    1.30    6.00
   1   7  13   -7.10    4.30
  -2  -7 -13  110.09    9.70
  -2  -7 -13   99.79   12.90
   2   7  13   86.49   13.30
   2   7  13  118.29   12.50
  -3  -7 -13    8.40    5.60
  -3  -7 -13    9.60    6.60
   3   7  13   -2.70    6.90
   3   7  13   -3.30    5.70
  -4  -7 -13   24.70    8.70
  -4  -7 -13   33.40    7.20
   2  -8 -13   60.09    8.90
   1  -8 -13   23.20    7.00
  -1   8  13   23.40    7.20
   0  -8 -13   -3.50    4.50
   0   8  13   13.20    6.90
   0   8  13    8.10    6.80
  -1  -8 -13   15.10    5.40
   1   8  13   14.20    7.20
   1   8  13   20.20    5.90
  -2  -8 -13  118.39   12.70
   2   8  13  118.19   12.60
  -3  -8 -13    3.10    7.30
   3   8  13   20.60    6.70
   1   1 -14   25.80    7.40
  -1  -1  14   28.30    6.70
   0   1 -14    7.10    5.90
   0  -1  14    3.20    5.80
  -1   1 -14    0.40    5.10
  -1   1 -14  -14.50    5.30
   1  -1  14   -1.00    6.60
   1  -1  14   -7.40    5.30
  -2   1 -14   15.70    6.40
   2  -1  14   14.30    7.20
   2   0 -14   47.00    9.20
  -2   0  14   42.00    9.00
   1   0 -14    0.00    5.20
  -1   0  14   -1.60    5.80
  -1   0  14  -13.50    4.60
   0   0 -14   87.79   12.10
   0   0 -14  107.29   14.80
   0   0  14  106.79   12.40
   0   0  14   86.19   11.20
  -1   0 -14   -4.80    4.60
  -1   0 -14    7.20    5.90
   1   0  14  -10.60    4.70
  -2   0 -14   -0.20    6.10
  -2   0 -14   -0.30    6.10
   2   0  14   -1.30    6.00
   2   0  14    1.70    6.10
  -3   0 -14   -3.40    5.50
   3   0  14   12.70    7.10
   2  -1 -14   23.70    8.40
   2  -1 -14    3.20    5.80
  -2   1  14   16.10    6.10
   1  -1 -14   79.59   10.00
   1  -1 -14   63.19   11.00
  -1   1  14   64.69   10.60
  -1   1  14   67.99   11.80
   0  -1 -14   -3.60    4.50
   0  -1 -14    9.00    6.50
   0   1  14   -5.00    4.20
   0   1  14   14.10    7.50
  -1  -1 -14    8.80    6.20
  -1  -1 -14  -12.40    4.70
   1   1  14    7.50    5.40
   1   1  14   -6.10    5.40
  -2  -1 -14   52.79   10.40
  -2  -1 -14   29.00    6.70
   2   1  14   51.99    9.60
   2   1  14   51.69    9.90
  -3  -1 -14   51.39    9.80
  -3  -1 -14   50.09    8.00
   3   1  14   55.09   13.00
   3   1  14   71.79   11.90
   4   1  14   -1.00    6.40
   2  -2 -14   -7.70    4.80
   2  -2 -14   19.70    8.20
  -2   2  14    6.40    5.80
   1  -2 -14   45.50    7.20
   1  -2 -14   51.79   10.70
  -1   2  14   69.59   11.60
  -1   2  14   70.89   11.30
   0  -2 -14   -7.30    3.80
   0   2  14    3.40    6.80
   0   2  14   -6.70    4.10
  -1  -2 -14   91.49    9.20
   1   2  14  104.49   13.70
   1   2  14   79.99   11.40
  -2  -2 -14   -7.40    4.10
   2   2  14    3.90    5.00
   2   2  14   -8.10    6.20
  -3  -2 -14   11.60    7.30
   3   2  14   12.90    7.30
  -4  -2 -14    5.00    6.10
   4   2  14   -6.70    5.60
   2  -3 -14    6.80    5.60
   2  -3 -14    8.00    7.70
  -2   3  14    5.40    8.30
  -2   3  14   10.50    6.40
   1  -3 -14   -7.00    3.70
   1  -3 -14    3.40    5.60
  -1   3  14    6.60    7.80
  -1   3  14   -3.50    5.00
   0  -3 -14   38.30    8.20
   0   3  14   17.80    8.20
   0   3  14   38.80    9.00
  -1  -3 -14   47.30    9.30
   1   3  14   29.30    7.30
   1   3  14   48.20   10.20
  -2  -3 -14   81.19   12.40
   2   3  14   73.19   12.80
  -3  -3 -14  -12.20    4.70
  -3  -3 -14  -11.60    7.30
   3   3  14   -7.50    6.70
   3   3  14   -8.10    5.30
  -4  -3 -14    2.40    6.30
   4   3  14   -1.70    6.50
   2  -4 -14   52.49    9.60
  -2   4  14   46.70    9.80
  -2   4  14   27.00    9.40
   1  -4 -14   16.20    7.60
  -1   4  14   26.40    8.40
   0  -4 -14   65.09   10.50
   0   4  14   79.99   12.20
  -1  -4 -14   31.50    9.80
  -1  -4 -14   45.90    9.20
   1   4  14   36.00   12.10
   1   4  14   63.59   10.90
  -2  -4 -14    7.70    6.10
   2   4  14   -4.20    7.10
   2   4  14   17.10    8.20
  -3  -4 -14   -1.70    6.10
  -3  -4 -14   21.50    7.70
   3   4  14    1.10    5.90
   3   4  14    5.80    6.40
   2  -5 -14   17.10    6.70
   2  -5 -14   38.80    9.00
  -2   5  14   29.10    9.00
  -2   5  14   30.70    9.90
   1  -5 -14    7.10    6.50
   1  -5 -14   -8.50    6.10
  -1   5  14   -1.20    5.10
  -1   5  14   10.30    7.70
   0  -5 -14   -6.30    5.70
   0  -5 -14    3.60    5.30
   0   5  14    6.70    6.30
   0   5  14   -9.80    4.70
  -1  -5 -14   72.49   11.20
  -1  -5 -14   71.89   10.00
   1   5  14   73.29   13.00
   1   5  14  102.79   12.50
  -2  -5 -14   45.60    9.00
   2   5  14   35.20    8.60
   2   5  14   52.39   10.60
  -3  -5 -14   60.99   10.10
  -3  -5 -14   57.69   11.00
   3   5  14   60.19   11.00
   3   5  14   42.50   11.50
   1  -6 -14   19.40    8.00
   1  -6 -14   37.80    7.80
  -1   6  14   32.00    9.00
  -1   6  14   63.99   11.00
   0  -6 -14    9.20    6.10
   0  -6 -14   -4.00    5.30
   0   6  14    9.70    6.20
   0   6  14   -9.40    4.50
  -1  -6 -14    3.20    5.30
  -1  -6 -14   -3.10    7.20
   1   6  14   -4.20    6.80
   1   6  14   -0.10    5.90
  -2  -6 -14   13.50    6.20
  -2  -6 -14    2.40    8.80
   2   6  14    9.90    6.10
   2   6  14   -2.80    7.50
   0  -7 -14   29.50    8.20
  -1  -7 -14   13.50    7.50
   1   7  14   20.10    6.60
   0   0   0    0.00    0.00

_computing_structure_solution     'SHELXT 2014/5 (Sheldrick, 2014)'
;
_shelx_hkl_checksum                43906
_olex2_submission_special_instructions  'No special instructions were received'
