data_Wu_LS_NaMPSA
_audit_creation_date               2019-03-22
_audit_creation_method
;
Olex2 1.2-beta
(compiled 2018.05.29 svn.r3508 for OlexSys, GUI svn.r5506)
;
_shelx_SHELXL_version_number       '2018/3'
_audit_contact_author_address      ?
_audit_contact_author_email        ?
_audit_contact_author_name         ''
_audit_contact_author_phone        ?
_publ_contact_author_id_orcid      ?
_publ_section_references
;
Dolomanov, O.V., Bourhis, L.J., Gildea, R.J, Howard, J.A.K. & Puschmann, H.
 (2009), J. Appl. Cryst. 42, 339-341.

Sheldrick, G.M. (2015). Acta Cryst. C71, 3-8.
;
_chemical_name_common              ?
_chemical_name_systematic          ?
_chemical_formula_moiety           'C5 H9 F3 N Na O3 S'
_chemical_formula_sum              'C5 H9 F3 N Na O3 S'
_chemical_formula_weight           243.18
_chemical_melting_point            ?
loop_
  _atom_type_symbol
  _atom_type_description
  _atom_type_scat_dispersion_real
  _atom_type_scat_dispersion_imag
  _atom_type_scat_source
 'C' 'C' 0.0033 0.0016 'International Tables Vol C Tables 4.2.6.8 and 6.1.1.4'
 'H' 'H' 0.0000 0.0000 'International Tables Vol C Tables 4.2.6.8 and 6.1.1.4'
 'F' 'F' 0.0171 0.0103 'International Tables Vol C Tables 4.2.6.8 and 6.1.1.4'
 'N' 'N' 0.0061 0.0033 'International Tables Vol C Tables 4.2.6.8 and 6.1.1.4'
 'Na' 'Na' 0.0362 0.0249 'International Tables Vol C Tables 4.2.6.8 and 6.1.1.4'
 'O' 'O' 0.0106 0.0060 'International Tables Vol C Tables 4.2.6.8 and 6.1.1.4'
 'S' 'S' 0.1246 0.1234 'International Tables Vol C Tables 4.2.6.8 and 6.1.1.4'

_shelx_space_group_comment
;
The symmetry employed for this shelxl refinement is uniquely defined
by the following loop, which should always be used as a source of
symmetry information in preference to the above space-group names.
They are only intended as comments.
;
_space_group_crystal_system        'monoclinic'
_space_group_IT_number             15
_space_group_name_H-M_alt          'C 1 2/c 1'
_space_group_name_Hall             '-C 2yc'
loop_
  _space_group_symop_operation_xyz
 'x, y, z'
 '-x, y, -z+1/2'
 'x+1/2, y+1/2, z'
 '-x+1/2, y+1/2, -z+1/2'
 '-x, -y, -z'
 'x, -y, z-1/2'
 '-x+1/2, -y+1/2, -z'
 'x+1/2, -y+1/2, z-1/2'

_cell_length_a                     20.5374(7)
_cell_length_b                     10.5130(4)
_cell_length_c                     10.3830(4)
_cell_angle_alpha                  90
_cell_angle_beta                   117.4790(10)
_cell_angle_gamma                  90
_cell_volume                       1988.87(13)
_cell_formula_units_Z              8
_cell_measurement_reflns_used      7973
_cell_measurement_temperature      300.0
_cell_measurement_theta_max        25.203
_cell_measurement_theta_min        3.490
_shelx_estimated_absorpt_T_max     0.971
_shelx_estimated_absorpt_T_min     0.943
_exptl_absorpt_coefficient_mu      0.395
_exptl_absorpt_correction_T_max    0.2590
_exptl_absorpt_correction_T_min    0.2354
_exptl_absorpt_correction_type     multi-scan
_exptl_absorpt_process_details    
 'SADABS-2016/2 (Bruker,2016/2) was used for absorption correction. wR2(int) was 0.0452 before and 0.0417 after correction. The Ratio of minimum to maximum transmission is 0.9089. The \l/2 correction factor is Not present.'
_exptl_absorpt_special_details     ?
_exptl_crystal_colour              Colorless
_exptl_crystal_colour_primary      Colorless
_exptl_crystal_density_diffrn      1.624
_exptl_crystal_density_meas        ?
_exptl_crystal_density_method      ?
_exptl_crystal_description         Plate
_exptl_crystal_F_000               992
_exptl_crystal_preparation         ?
_exptl_crystal_size_max            0.15
_exptl_crystal_size_mid            0.143
_exptl_crystal_size_min            0.074
_exptl_transmission_factor_max     ?
_exptl_transmission_factor_min     ?
_diffrn_reflns_av_R_equivalents    0.0261
_diffrn_reflns_av_unetI/netI       0.0137
_diffrn_reflns_Laue_measured_fraction_full  0.995
_diffrn_reflns_Laue_measured_fraction_max  0.996
_diffrn_reflns_limit_h_max         24
_diffrn_reflns_limit_h_min         -24
_diffrn_reflns_limit_k_max         12
_diffrn_reflns_limit_k_min         -12
_diffrn_reflns_limit_l_max         12
_diffrn_reflns_limit_l_min         -12
_diffrn_reflns_number              17476
_diffrn_reflns_point_group_measured_fraction_full  0.995
_diffrn_reflns_point_group_measured_fraction_max  0.996
_diffrn_reflns_theta_full          25.000
_diffrn_reflns_theta_max           25.351
_diffrn_reflns_theta_min           3.490
_diffrn_ambient_temperature        300.0
_diffrn_detector                   'Bruker Photon II area detector'
_diffrn_detector_area_resol_mean   10.5
_diffrn_detector_type              'CMOS area detector'
_diffrn_measured_fraction_theta_full  0.995
_diffrn_measured_fraction_theta_max  0.996
_diffrn_measurement_device         'Kappa Four-Circle Diffractometer'
_diffrn_measurement_device_type    'Bruker D8 Venture'
_diffrn_measurement_method         '\w and \f scans'
_diffrn_radiation_monochromator    'Curved-Graphite, Bruker TRIUMPH'
_diffrn_radiation_probe            X-ray
_diffrn_radiation_type             MoK\a
_diffrn_radiation_wavelength       0.71073
_diffrn_source                     'sealed tube'
_diffrn_source_type                fine-focus
_diffrn_special_details            ?
_diffrn_standards_number           0
_reflns_Friedel_coverage           0.000
_reflns_Friedel_fraction_full      .
_reflns_Friedel_fraction_max       .
_reflns_number_gt                  1570
_reflns_number_total               1816
_reflns_special_details
;
 Reflections were merged by SHELXL according to the crystal
 class for the calculation of statistics and refinement.
 
 _reflns_Friedel_fraction is defined as the number of unique
 Friedel pairs measured divided by the number that would be
 possible theoretically, ignoring centric projections and
 systematic absences.
;
_reflns_threshold_expression       'I > 2\s(I)'
_computing_cell_refinement         'SAINT v8.38A (Bruker, 2017)'
_computing_data_collection         'APEX3 v2017.3-0 (Bruker, 2017)'
_computing_data_reduction          'SAINT v8.38A (Bruker, 2017)'
_computing_molecular_graphics      'Olex2 (Dolomanov et al., 2009)'
_computing_publication_material    'Olex2 (Dolomanov et al., 2009)'
_computing_structure_refinement    'ShelXL (Sheldrick, 2015)'
_computing_structure_solution      'ShelXT (Sheldrick, 2015)'
_refine_diff_density_max           0.173
_refine_diff_density_min           -0.243
_refine_diff_density_rms           0.033
_refine_ls_extinction_coef         .
_refine_ls_extinction_method       none
_refine_ls_goodness_of_fit_ref     1.033
_refine_ls_hydrogen_treatment      constr
_refine_ls_matrix_type             full
_refine_ls_number_parameters       186
_refine_ls_number_reflns           1816
_refine_ls_number_restraints       0
_refine_ls_R_factor_all            0.0371
_refine_ls_R_factor_gt             0.0298
_refine_ls_restrained_S_all        1.033
_refine_ls_shift/su_max            0.000
_refine_ls_shift/su_mean           0.000
_refine_ls_structure_factor_coef   Fsqd
_refine_ls_weighting_details      
 'w=1/[\s^2^(Fo^2^)+(0.0339P)^2^+1.5250P] where P=(Fo^2^+2Fc^2^)/3'
_refine_ls_weighting_scheme        calc
_refine_ls_wR_factor_gt            0.0712
_refine_ls_wR_factor_ref           0.0756
_refine_special_details            ?
_olex2_refinement_description
;
1. Fixed Uiso
 At 1.2 times of:
  All C(H,H) groups, All C(H,H,H,H) groups
 At 1.5 times of:
  All C(H,H,H) groups
2. Uiso/Uaniso restraints and constraints
Uanis(C5B) = Uanis(C5)
Uanis(N1B) = Uanis(N1)
Uanis(O2B) = Uanis(O2)
Uanis(S1) = Uanis(S1B)
3. Others
 Sof(H3BC)=Sof(H3BD)=Sof(S1B)=Sof(F1B)=Sof(F2B)=Sof(F3B)=Sof(O2B)=Sof(N1B)=
 Sof(C1B)=Sof(H1BA)=Sof(H1BB)=Sof(C2B)=Sof(H2BB)=Sof(H2BA)=Sof(C5B)=1-FVAR(1)
 Sof(H3AA)=Sof(H3AB)=Sof(S1)=Sof(F1)=Sof(F2)=Sof(F3)=Sof(O2)=Sof(N1)=Sof(C1)=
 Sof(H1A)=Sof(H1B)=Sof(C2)=Sof(H2A)=Sof(H2B)=Sof(C5)=FVAR(1)
4.a Secondary CH2 refined with riding coordinates:
 C3(H3AA,H3AB), C3(H3BC,H3BD), C1(H1A,H1B), C2(H2A,H2B), C1B(H1BA,H1BB),
 C2B(H2BB,H2BA)
4.b Idealised Me refined as rotating group:
 C4(H4A,H4B,H4C)
;
_atom_sites_solution_hydrogens     geom
_atom_sites_solution_primary       dual
_atom_sites_solution_secondary     difmap
loop_
  _atom_site_label
  _atom_site_type_symbol
  _atom_site_fract_x
  _atom_site_fract_y
  _atom_site_fract_z
  _atom_site_U_iso_or_equiv
  _atom_site_adp_type
  _atom_site_occupancy
  _atom_site_site_symmetry_order
  _atom_site_calc_flag
  _atom_site_refinement_flags_posn
  _atom_site_refinement_flags_adp
  _atom_site_refinement_flags_occupancy
  _atom_site_disorder_assembly
  _atom_site_disorder_group
 Na1 Na 0.20775(4) -0.10718(6) 0.37508(7) 0.0443(2) Uani 1 1 d . . . . .
 O1 O 0.39594(8) 0.57062(14) 0.58911(17) 0.0636(4) Uani 1 1 d . . . . .
 O3 O 0.28162(7) 0.14296(12) 0.11781(13) 0.0531(3) Uani 1 1 d . . . . .
 C3 C 0.42345(14) 0.4619(2) 0.5520(2) 0.0665(6) Uani 1 1 d . . . . .
 H3AA H 0.476617 0.466724 0.600375 0.080 Uiso 0.706(6) 1 calc R . P A 1
 H3AB H 0.407373 0.463706 0.448283 0.080 Uiso 0.706(6) 1 calc R . P A 1
 H3BC H 0.473238 0.440887 0.622821 0.080 Uiso 0.294(6) 1 calc R . P A 2
 H3BD H 0.419493 0.466140 0.455321 0.080 Uiso 0.294(6) 1 calc R . P A 2
 C4 C 0.41976(19) 0.6831(2) 0.5491(4) 0.0977(9) Uani 1 1 d . . . . .
 H4A H 0.402829 0.683295 0.446047 0.147 Uiso 1 1 calc GR . . . .
 H4B H 0.472404 0.686600 0.598310 0.147 Uiso 1 1 calc GR . . . .
 H4C H 0.400228 0.755672 0.575602 0.147 Uiso 1 1 calc GR . . . .
 S1 S 0.30036(16) 0.1374(3) 0.2684(3) 0.0378(4) Uani 0.706(6) 1 d . . P A 1
 F1 F 0.3689(8) -0.0890(11) 0.2788(13) 0.119(2) Uani 0.706(6) 1 d . . P A 1
 F2 F 0.4356(3) 0.0859(6) 0.3099(8) 0.1057(17) Uani 0.706(6) 1 d . . P A 1
 F3 F 0.4108(3) 0.0236(4) 0.4812(4) 0.0975(11) Uani 0.706(6) 1 d . . P A 1
 O2 O 0.2548(7) 0.0668(7) 0.3137(12) 0.0584(11) Uani 0.706(6) 1 d . . P A 1
 N1 N 0.3225(2) 0.2678(3) 0.3355(4) 0.0415(7) Uani 0.706(6) 1 d . . P A 1
 C1 C 0.3257(2) 0.2977(3) 0.4770(3) 0.0559(10) Uani 0.706(6) 1 d . . P A 1
 H1A H 0.310315 0.223673 0.511749 0.067 Uiso 0.706(6) 1 calc R . P A 1
 H1B H 0.291650 0.366167 0.464517 0.067 Uiso 0.706(6) 1 calc R . P A 1
 C2 C 0.4014(3) 0.3364(4) 0.5891(4) 0.0605(10) Uani 0.706(6) 1 d . . P A 1
 H2A H 0.402416 0.342505 0.683248 0.073 Uiso 0.706(6) 1 calc R . P A 1
 H2B H 0.436415 0.271653 0.595373 0.073 Uiso 0.706(6) 1 calc R . P A 1
 C5 C 0.3832(4) 0.0366(5) 0.3394(6) 0.0640(11) Uani 0.706(6) 1 d . . P A 1
 S1B S 0.3132(4) 0.1193(7) 0.2769(9) 0.0378(4) Uani 0.294(6) 1 d . . P A 2
 F1B F 0.351(2) -0.081(3) 0.253(3) 0.150(9) Uani 0.294(6) 1 d . . P A 2
 F2B F 0.4247(10) 0.0355(13) 0.269(2) 0.112(5) Uani 0.294(6) 1 d . . P A 2
 F3B F 0.4183(6) -0.0251(8) 0.4490(10) 0.083(2) Uani 0.294(6) 1 d . . P A 2
 O2B O 0.2607(17) 0.043(2) 0.302(3) 0.0584(11) Uani 0.294(6) 1 d . . P A 2
 N1B N 0.3484(5) 0.2407(8) 0.3515(10) 0.0415(7) Uani 0.294(6) 1 d . . P A 2
 C1B C 0.3749(6) 0.2419(7) 0.5116(7) 0.058(3) Uani 0.294(6) 1 d . . P A 2
 H1BA H 0.426678 0.220354 0.560911 0.069 Uiso 0.294(6) 1 calc R . P A 2
 H1BB H 0.348473 0.178513 0.536900 0.069 Uiso 0.294(6) 1 calc R . P A 2
 C2B C 0.3636(6) 0.3721(9) 0.5614(10) 0.052(2) Uani 0.294(6) 1 d . . P A 2
 H2BB H 0.370400 0.368223 0.660192 0.062 Uiso 0.294(6) 1 calc R . P A 2
 H2BA H 0.314525 0.403356 0.498807 0.062 Uiso 0.294(6) 1 calc R . P A 2
 C5B C 0.3819(11) -0.0001(16) 0.3058(18) 0.0640(11) Uani 0.294(6) 1 d . . P A 2

loop_
  _atom_site_aniso_label
  _atom_site_aniso_U_11
  _atom_site_aniso_U_22
  _atom_site_aniso_U_33
  _atom_site_aniso_U_23
  _atom_site_aniso_U_13
  _atom_site_aniso_U_12
 Na1 0.0535(4) 0.0437(4) 0.0398(4) 0.0025(3) 0.0249(3) -0.0004(3)
 O1 0.0635(9) 0.0647(9) 0.0784(10) -0.0011(7) 0.0462(8) -0.0004(7)
 O3 0.0675(8) 0.0522(8) 0.0334(6) 0.0017(5) 0.0178(6) -0.0038(6)
 C3 0.0875(16) 0.0657(14) 0.0535(12) -0.0178(10) 0.0385(12) -0.0169(12)
 C4 0.134(2) 0.0605(15) 0.144(3) -0.0018(16) 0.103(2) -0.0028(16)
 S1 0.0440(11) 0.0339(9) 0.0336(4) 0.0054(5) 0.0163(7) 0.0012(5)
 F1 0.155(7) 0.075(3) 0.122(4) 0.027(2) 0.060(5) 0.060(3)
 F2 0.0645(17) 0.114(4) 0.142(4) 0.035(3) 0.051(2) 0.024(2)
 F3 0.111(2) 0.098(3) 0.0583(19) 0.0247(17) 0.0184(15) 0.050(2)
 O2 0.081(2) 0.045(3) 0.065(2) -0.005(2) 0.0469(12) -0.017(2)
 N1 0.052(2) 0.0368(16) 0.0397(12) 0.0002(10) 0.0249(16) 0.0006(13)
 C1 0.075(2) 0.0502(19) 0.0537(18) -0.0048(15) 0.0389(18) -0.0038(17)
 C2 0.076(3) 0.056(2) 0.0435(18) -0.0004(16) 0.023(2) 0.0040(19)
 C5 0.0849(19) 0.049(3) 0.057(3) 0.007(2) 0.031(2) 0.017(2)
 S1B 0.0440(11) 0.0339(9) 0.0336(4) 0.0054(5) 0.0163(7) 0.0012(5)
 F1B 0.155(15) 0.068(7) 0.175(17) 0.000(8) 0.032(10) 0.067(7)
 F2B 0.125(9) 0.105(10) 0.133(10) 0.033(7) 0.082(8) 0.034(7)
 F3B 0.098(5) 0.070(5) 0.062(4) 0.022(4) 0.021(3) 0.031(4)
 O2B 0.081(2) 0.045(3) 0.065(2) -0.005(2) 0.0469(12) -0.017(2)
 N1B 0.052(2) 0.0368(16) 0.0397(12) 0.0002(10) 0.0249(16) 0.0006(13)
 C1B 0.093(7) 0.037(4) 0.039(4) -0.002(3) 0.026(4) -0.003(4)
 C2B 0.070(6) 0.051(5) 0.044(5) -0.014(4) 0.034(5) -0.001(4)
 C5B 0.0849(19) 0.049(3) 0.057(3) 0.007(2) 0.031(2) 0.017(2)

_geom_special_details
;
 All esds (except the esd in the dihedral angle between two l.s. planes)
 are estimated using the full covariance matrix.  The cell esds are taken
 into account individually in the estimation of esds in distances, angles
 and torsion angles; correlations between esds in cell parameters are only
 used when they are defined by crystal symmetry.  An approximate (isotropic)
 treatment of cell esds is used for estimating esds involving l.s. planes.
;
loop_
  _geom_bond_atom_site_label_1
  _geom_bond_atom_site_label_2
  _geom_bond_distance
  _geom_bond_site_symmetry_2
  _geom_bond_publ_flag
 Na1 Na1 3.8215(13) 7_546 ?
 Na1 O1 2.3562(15) 7_556 ?
 Na1 O3 2.6340(14) 4_545 ?
 Na1 O3 2.2948(14) 6_556 ?
 Na1 S1 3.038(3) 4_545 ?
 Na1 O2 2.292(10) . ?
 Na1 N1 2.375(3) 4_545 ?
 Na1 S1B 3.212(7) 4_545 ?
 Na1 O2B 2.24(3) . ?
 Na1 N1B 2.630(9) 4_545 ?
 O1 C3 1.406(3) . ?
 O1 C4 1.413(3) . ?
 O3 S1 1.429(3) . ?
 O3 S1B 1.491(8) . ?
 C3 H3AA 0.9700 . ?
 C3 H3AB 0.9700 . ?
 C3 H3BC 0.9700 . ?
 C3 H3BD 0.9700 . ?
 C3 C2 1.502(4) . ?
 C3 C2B 1.588(9) . ?
 C4 H4A 0.9600 . ?
 C4 H4B 0.9600 . ?
 C4 H4C 0.9600 . ?
 S1 O2 1.433(11) . ?
 S1 N1 1.510(5) . ?
 S1 C5 1.844(6) . ?
 F1 C5 1.433(14) . ?
 F2 C5 1.352(9) . ?
 F3 C5 1.318(7) . ?
 N1 C1 1.474(4) . ?
 C1 H1A 0.9700 . ?
 C1 H1B 0.9700 . ?
 C1 C2 1.505(6) . ?
 C2 H2A 0.9700 . ?
 C2 H2B 0.9700 . ?
 S1B O2B 1.46(3) . ?
 S1B N1B 1.496(13) . ?
 S1B C5B 1.808(18) . ?
 F1B C5B 1.05(4) . ?
 F2B C5B 1.17(2) . ?
 F3B C5B 1.35(2) . ?
 N1B C1B 1.491(11) . ?
 C1B H1BA 0.9700 . ?
 C1B H1BB 0.9700 . ?
 C1B C2B 1.519(12) . ?
 C2B H2BB 0.9700 . ?
 C2B H2BA 0.9700 . ?

loop_
  _geom_angle_atom_site_label_1
  _geom_angle_atom_site_label_2
  _geom_angle_atom_site_label_3
  _geom_angle
  _geom_angle_site_symmetry_1
  _geom_angle_site_symmetry_3
  _geom_angle_publ_flag
 O1 Na1 Na1 100.46(5) 7_556 7_546 ?
 O1 Na1 O3 103.15(5) 7_556 4_545 ?
 O1 Na1 S1 111.87(7) 7_556 4_545 ?
 O1 Na1 N1 111.34(10) 7_556 4_545 ?
 O1 Na1 S1B 107.32(14) 7_556 4_545 ?
 O1 Na1 N1B 100.7(2) 7_556 4_545 ?
 O3 Na1 Na1 42.50(3) 6_556 7_546 ?
 O3 Na1 Na1 36.06(3) 4_545 7_546 ?
 O3 Na1 O1 92.35(5) 6_556 7_556 ?
 O3 Na1 O3 78.55(5) 6_556 4_545 ?
 O3 Na1 S1 104.63(7) 6_556 4_545 ?
 O3 Na1 S1 28.03(7) 4_545 4_545 ?
 O3 Na1 N1 132.83(9) 6_556 4_545 ?
 O3 Na1 S1B 27.33(15) 4_545 4_545 ?
 O3 Na1 S1B 105.29(16) 6_556 4_545 ?
 O3 Na1 N1B 132.7(2) 6_556 4_545 ?
 S1 Na1 Na1 62.83(6) 4_545 7_546 ?
 S1 Na1 S1B 4.55(18) 4_545 4_545 ?
 O2 Na1 Na1 134.3(3) . 7_546 ?
 O2 Na1 O1 116.2(2) . 7_556 ?
 O2 Na1 O3 106.7(3) . 6_556 ?
 O2 Na1 O3 139.77(18) . 4_545 ?
 O2 Na1 S1 120.25(17) . 4_545 ?
 O2 Na1 N1 98.6(2) . 4_545 ?
 O2 Na1 S1B 123.8(2) . 4_545 ?
 O2 Na1 N1B 107.7(3) . 4_545 ?
 N1 Na1 Na1 91.94(8) 4_545 7_546 ?
 N1 Na1 O3 57.11(9) 4_545 4_545 ?
 N1 Na1 S1 29.24(10) 4_545 4_545 ?
 N1 Na1 S1B 29.93(17) 4_545 4_545 ?
 N1 Na1 N1B 11.36(18) 4_545 4_545 ?
 O2B Na1 N1B 102.0(6) . 4_545 ?
 C3 O1 Na1 133.07(13) . 7_556 ?
 C3 O1 C4 111.23(16) . . ?
 C4 O1 Na1 111.76(14) . 7_556 ?
 Na1 O3 Na1 101.45(5) 6 4 ?
 S1 O3 Na1 91.91(13) . 4 ?
 S1 O3 Na1 154.55(16) . 6 ?
 O1 C3 H3AA 108.3 . . ?
 O1 C3 H3AB 108.3 . . ?
 O1 C3 H3BC 113.2 . . ?
 O1 C3 H3BD 113.2 . . ?
 O1 C3 C2 115.9(2) . . ?
 O1 C3 C2B 92.6(4) . . ?
 H3AA C3 H3AB 107.4 . . ?
 H3BC C3 H3BD 110.5 . . ?
 C2 C3 H3AA 108.3 . . ?
 C2 C3 H3AB 108.3 . . ?
 C2B C3 H3BC 113.2 . . ?
 C2B C3 H3BD 113.2 . . ?
 O1 C4 H4A 109.5 . . ?
 O1 C4 H4B 109.5 . . ?
 O1 C4 H4C 109.5 . . ?
 H4A C4 H4B 109.5 . . ?
 H4A C4 H4C 109.5 . . ?
 H4B C4 H4C 109.5 . . ?
 O3 S1 Na1 60.05(11) . 4 ?
 O3 S1 O2 119.5(5) . . ?
 O3 S1 N1 109.8(2) . . ?
 O3 S1 C5 101.2(2) . . ?
 O2 S1 Na1 136.2(4) . 4 ?
 O2 S1 N1 115.0(3) . . ?
 O2 S1 C5 101.1(5) . . ?
 N1 S1 Na1 50.22(14) . 4 ?
 N1 S1 C5 108.2(2) . . ?
 C5 S1 Na1 122.4(2) . 4 ?
 S1 O2 Na1 158.0(4) . . ?
 S1 N1 Na1 100.53(19) . 4 ?
 C1 N1 Na1 132.2(2) . 4 ?
 C1 N1 S1 121.3(3) . . ?
 N1 C1 H1A 109.1 . . ?
 N1 C1 H1B 109.1 . . ?
 N1 C1 C2 112.6(3) . . ?
 H1A C1 H1B 107.8 . . ?
 C2 C1 H1A 109.1 . . ?
 C2 C1 H1B 109.1 . . ?
 C3 C2 C1 111.4(3) . . ?
 C3 C2 H2A 109.3 . . ?
 C3 C2 H2B 109.3 . . ?
 C1 C2 H2A 109.3 . . ?
 C1 C2 H2B 109.3 . . ?
 H2A C2 H2B 108.0 . . ?
 F1 C5 S1 112.9(7) . . ?
 F2 C5 S1 111.9(4) . . ?
 F2 C5 F1 106.1(6) . . ?
 F3 C5 S1 110.4(3) . . ?
 F3 C5 F1 106.9(6) . . ?
 F3 C5 F2 108.3(6) . . ?
 O3 S1B Na1 54.2(2) . 4 ?
 O3 S1B N1B 106.9(6) . . ?
 O3 S1B C5B 101.9(7) . . ?
 O2B S1B O3 108.1(13) . . ?
 O2B S1B N1B 126.5(10) . . ?
 O2B S1B C5B 100.1(12) . . ?
 N1B S1B C5B 110.7(8) . . ?
 S1B O2B Na1 164.0(19) . . ?
 C1B N1B S1B 115.2(7) . . ?
 N1B C1B H1BA 109.5 . . ?
 N1B C1B H1BB 109.5 . . ?
 N1B C1B C2B 110.7(7) . . ?
 H1BA C1B H1BB 108.1 . . ?
 C2B C1B H1BA 109.5 . . ?
 C2B C1B H1BB 109.5 . . ?
 Na1 C2B H2BB 70.1 7_556 . ?
 Na1 C2B H2BA 54.9 7_556 . ?
 C3 C2B Na1 89.7(4) . 7_556 ?
 C3 C2B H2BB 110.6 . . ?
 C3 C2B H2BA 110.6 . . ?
 C1B C2B C3 105.6(7) . . ?
 C1B C2B H2BB 110.6 . . ?
 C1B C2B H2BA 110.6 . . ?
 H2BB C2B H2BA 108.7 . . ?
 F1B C5B S1B 104(2) . . ?
 F1B C5B F2B 117(2) . . ?
 F1B C5B F3B 108(2) . . ?
 F2B C5B S1B 111.7(14) . . ?
 F2B C5B F3B 107.8(18) . . ?
 F3B C5B S1B 108.2(9) . . ?

_shelx_res_file
;
TITL wu_ls_nampsa_rt_a.res in C2/c
    wu_ls_nampsa_rt.res
    created by SHELXL-2018/3 at 15:00:32 on 22-Mar-2019
REM Old TITL Wu_LS_NaMPSA_RT in C2/c #15
REM SHELXT solution in C2/c
REM R1 0.183, Rweak 0.011, Alpha 0.059, Orientation as input
REM Formula found by SHELXT: C5 F6 Na O S
CELL 0.71073 20.5374 10.513 10.383 90 117.479 90
ZERR 8 0.0007 0.0004 0.0004 0 0.001 0
LATT 7
SYMM -X,+Y,0.5-Z
SFAC C H F N Na O S
UNIT 40 72 24 8 8 24 8
EQIV $1 0.5-X,0.5-Y,1-Z
EADP C5B C5
EADP N1B N1
EADP O2B O2
EADP S1 S1B

L.S. 10
PLAN  20
SIZE 0.15 0.143 0.074
TEMP 26.85
FREE Na1 C2B_$1
BOND $H
LIST 6
fmap 2
acta 50
REM <olex2.extras>
REM <HklSrc "%.\\mo_Wu_LS_NaMPSA_0m.hkl">
REM </olex2.extras>

WGHT    0.033900    1.525000
FVAR       0.60630   0.70577
NA1   5    0.207750   -0.107184    0.375080    11.00000    0.05347    0.04371 =
         0.03978    0.00252    0.02488   -0.00043
O1    6    0.395937    0.570622    0.589106    11.00000    0.06347    0.06467 =
         0.07843   -0.00110    0.04616   -0.00038
O3    6    0.281616    0.142963    0.117807    11.00000    0.06749    0.05223 =
         0.03336    0.00174    0.01784   -0.00377
C3    1    0.423454    0.461861    0.551999    11.00000    0.08748    0.06565 =
         0.05346   -0.01782    0.03854   -0.01686
PART 1
AFIX  23
H3AA  2    0.476617    0.466724    0.600375    21.00000   -1.20000
H3AB  2    0.407373    0.463706    0.448283    21.00000   -1.20000
AFIX  23
PART 0
PART 2
H3BC  2    0.473238    0.440887    0.622821   -21.00000   -1.20000
H3BD  2    0.419493    0.466140    0.455321   -21.00000   -1.20000
AFIX   0
PART 0
C4    1    0.419760    0.683063    0.549055    11.00000    0.13439    0.06049 =
         0.14374   -0.00175    0.10298   -0.00283
AFIX 137
H4A   2    0.402829    0.683295    0.446047    11.00000   -1.50000
H4B   2    0.472404    0.686600    0.598310    11.00000   -1.50000
H4C   2    0.400228    0.755672    0.575602    11.00000   -1.50000
AFIX   0
PART 1
S1    7    0.300363    0.137374    0.268420    21.00000    0.04404    0.03386 =
         0.03359    0.00544    0.01630    0.00120
F1    3    0.368865   -0.089031    0.278831    21.00000    0.15529    0.07520 =
         0.12248    0.02665    0.06009    0.05974
F2    3    0.435607    0.085867    0.309870    21.00000    0.06452    0.11433 =
         0.14168    0.03474    0.05058    0.02357
F3    3    0.410838    0.023602    0.481160    21.00000    0.11145    0.09845 =
         0.05829    0.02467    0.01844    0.04975
O2    6    0.254766    0.066761    0.313661    21.00000    0.08112    0.04491 =
         0.06479   -0.00543    0.04690   -0.01693
N1    4    0.322509    0.267776    0.335493    21.00000    0.05223    0.03684 =
         0.03973    0.00022    0.02493    0.00060
C1    1    0.325728    0.297695    0.477044    21.00000    0.07460    0.05024 =
         0.05371   -0.00481    0.03886   -0.00380
AFIX  23
H1A   2    0.310315    0.223673    0.511749    21.00000   -1.20000
H1B   2    0.291650    0.366167    0.464517    21.00000   -1.20000
AFIX   0
C2    1    0.401407    0.336363    0.589130    21.00000    0.07630    0.05628 =
         0.04354   -0.00036    0.02300    0.00402
AFIX  23
H2A   2    0.402416    0.342505    0.683248    21.00000   -1.20000
H2B   2    0.436415    0.271653    0.595373    21.00000   -1.20000
AFIX   0
C5    1    0.383162    0.036553    0.339361    21.00000    0.08489    0.04893 =
         0.05663    0.00662    0.03139    0.01716
PART 0
PART 2
S1B   7    0.313190    0.119302    0.276906   -21.00000    0.04404    0.03386 =
         0.03359    0.00544    0.01630    0.00120
F1B   3    0.351023   -0.080832    0.252863   -21.00000    0.15533    0.06846 =
         0.17489    0.00047    0.03196    0.06738
F2B   3    0.424664    0.035540    0.268907   -21.00000    0.12459    0.10544 =
         0.13251    0.03332    0.08208    0.03402
F3B   3    0.418329   -0.025066    0.448984   -21.00000    0.09758    0.06998 =
         0.06175    0.02167    0.02120    0.03149
O2B   6    0.260668    0.043350    0.302129   -21.00000    0.08112    0.04491 =
         0.06479   -0.00543    0.04690   -0.01693
N1B   4    0.348425    0.240743    0.351532   -21.00000    0.05223    0.03684 =
         0.03973    0.00022    0.02493    0.00060
C1B   1    0.374933    0.241946    0.511588   -21.00000    0.09281    0.03657 =
         0.03854   -0.00202    0.02640   -0.00265
AFIX  23
H1BA  2    0.426678    0.220354    0.560911   -21.00000   -1.20000
H1BB  2    0.348473    0.178513    0.536900   -21.00000   -1.20000
AFIX   0
C2B   1    0.363580    0.372129    0.561400   -21.00000    0.07014    0.05060 =
         0.04442   -0.01374    0.03432   -0.00142
AFIX  23
H2BB  2    0.370400    0.368223    0.660192   -21.00000   -1.20000
H2BA  2    0.314525    0.403356    0.498807   -21.00000   -1.20000
AFIX   0
C5B   1    0.381934   -0.000121    0.305787   -21.00000    0.08489    0.04893 =
         0.05663    0.00662    0.03139    0.01716
HKLF 4




REM  wu_ls_nampsa_rt_a.res in C2/c
REM wR2 = 0.0756, GooF = S = 1.033, Restrained GooF = 1.033 for all data
REM R1 = 0.0298 for 1570 Fo > 4sig(Fo) and 0.0371 for all 1816 data
REM 186 parameters refined using 0 restraints

END

WGHT      0.0339      1.5250

REM Highest difference peak  0.173,  deepest hole -0.243,  1-sigma level  0.033
Q1    1   0.2611  0.1014  0.2721  11.00000  0.05    0.17
Q2    1   0.3067  0.2135  0.3095  11.00000  0.05    0.16
Q3    1   0.2884  0.0773  0.0977  11.00000  0.05    0.15
Q4    1   0.3489  0.0697  0.2851  11.00000  0.05    0.14
Q5    1   0.3872  0.4939  0.5067  11.00000  0.05    0.14
Q6    1   0.3728  0.5571  0.6334  11.00000  0.05    0.13
Q7    1   0.2751  0.0711  0.3815  11.00000  0.05    0.12
Q8    1   0.3805  0.7374  0.5220  11.00000  0.05    0.12
Q9    1   0.4023 -0.0905  0.3351  11.00000  0.05    0.12
Q10   1   0.2499  0.1634  0.1021  11.00000  0.05    0.12
Q11   1   0.3304  0.2963  0.2874  11.00000  0.05    0.12
Q12   1   0.2838  0.2905  0.2887  11.00000  0.05    0.12
Q13   1   0.3055  0.1608  0.1739  11.00000  0.05    0.10
Q14   1   0.3553  0.5637  0.5203  11.00000  0.05    0.10
Q15   1   0.3832  0.5058  0.4257  11.00000  0.05    0.10
Q16   1   0.3830  0.2624  0.3375  11.00000  0.05    0.10
Q17   1   0.4314  0.7317  0.6515  11.00000  0.05    0.10
Q18   1   0.4048  0.6233  0.5900  11.00000  0.05    0.09
Q19   1   0.3435 -0.1384  0.2458  11.00000  0.05    0.09
Q20   1   0.3805 -0.1194  0.2130  11.00000  0.05    0.09
;
_shelx_res_checksum                33349
_shelx_hkl_file
;
  -4   0   0 6533.39 106.120   1
  -6   0   0 8074.09 130.885   5
  -6   0   0 8069.02 133.538   3
  -6   0   0 7991.82 129.806   1
   6   0   0 7926.32 130.869   5
  -6   0   0 7765.05 132.529   2
  -8   0   0 3069.41 53.0979   5
  -8   0   0 3046.45 56.2608   3
   8   0   0 2989.12 52.7713   5
  -8   0   0 3084.43 51.8045   1
  -8   0   0 3006.78 55.2075   2
 -10   0   0 4799.10 86.5498   2
 -10   0   0 4960.82 81.3547   1
 -10   0   0 4938.65 92.0392   3
 -10   0   0 4835.30 83.3275   5
  10   0   0 4889.25 83.4285   5
 -12   0   0 248.774 12.5509   3
 -12   0   0 217.981 6.73922   1
 -12   0   0 215.811 10.4807   2
 -12   0   0 231.199 8.81459   5
  12   0   0 233.606 9.09078   5
 -14   0   0 134.371 7.83870   5
 -14   0   0 128.462 5.27763   1
 -14   0   0 134.596 10.6933   3
  14   0   0 140.569 8.31249   5
 -16   0   0 44.5507 6.09163   5
  16   0   0 42.8636 6.51598   5
 -16   0   0 37.3331 8.31044   3
 -18   0   0 70.4276 7.19885   5
 -18   0   0 57.3939 9.74020   3
 -20   0   0 49.8528 9.87134   3
  -3  -1   0 1785.93 31.2152   4
  -3  -1   0 1835.19 31.7941   3
  -3  -1   0 1823.83 30.2170   6
  -3  -1   0 1804.80 30.1716   6
   3  -1   0 1776.67 30.8795   2
   3  -1   0 1773.17 31.1182   5
  -3   1   0 1812.51 30.9349   2
   3   1   0 1515.31 29.4863   6
  -3   1   0 1784.88 30.7880   4
   3   1   0 1521.09 29.4871   6
  -3   1   0 1819.27 30.8432   3
  -3   1   0 1773.71 31.0627   5
   3   1   0 1825.55 29.7417   6
  -5  -1   0 61.1644 3.83510   6
  -5  -1   0 53.3102 5.53127   3
  -5  -1   0 56.9964 3.50239   6
   5  -1   0 50.9044 5.01463   2
   5  -1   0 54.1842 4.95762   5
  -5  -1   0 63.5245 3.85005   6
  -5  -1   0 63.0515 2.89143   5
   5   1   0 60.8380 2.43237   1
  -5   1   0 57.3622 4.94345   5
   5   1   0 55.9870 2.72940   5
  -5   1   0 64.4668 5.18172   3
  -5   1   0 57.2253 4.66406   2
  -5   1   0 58.6762 4.26396   1
  -7  -1   0 173.381 5.15683   6
  -7  -1   0 169.087 4.91156   6
  -7  -1   0 181.703 8.71022   3
  -7  -1   0 170.497 5.08852   6
   7  -1   0 160.837 7.25539   5
  -7  -1   0 169.876 5.24751   5
   7   1   0 169.775 5.21569   5
  -7   1   0 158.640 7.47083   2
  -7   1   0 169.477 6.60567   1
  -7   1   0 173.285 7.12769   5
  -7   1   0 161.646 8.15495   3
  -9  -1   0 70.9684 4.34600   6
   9  -1   0 60.0145 5.89426   5
  -9  -1   0 69.6440 3.63806   6
  -9  -1   0 77.0699 4.38974   5
  -9  -1   0 80.0448 8.28298   3
   9   1   0 81.1611 4.43145   5
  -9   1   0 66.1765 5.07163   1
  -9   1   0 72.0089 7.38236   3
  -9   1   0 78.2249 6.38780   2
  -9   1   0 77.1026 6.13556   5
 -11  -1   0 84.8162 8.45423   3
 -11  -1   0 87.7950 5.05928   6
 -11  -1   0 83.8747 4.50328   6
  11  -1   0 78.2059 7.03726   5
 -11  -1   0 84.2743 5.17755   5
 -11  -1   0 80.9538 4.54652   6
 -11   1   0 78.7022 6.89120   2
 -11   1   0 80.0068 8.17905   3
  11   1   0 89.9952 5.17903   5
 -11   1   0 79.4223 5.63899   1
 -11   1   0 87.3211 6.48843   5
 -13  -1   0 0.93560 3.33135   5
 -13  -1   0 0.47743 2.69531   6
 -13  -1   0 7.48391 5.10573   2
 -13  -1   0 -1.1521 2.83227   6
 -13  -1   0 -6.7862 5.04964   3
  13  -1   0 -3.8287 4.38691   5
 -13  -1   0 -1.4979 2.90016   6
 -13   1   0 -4.5217 4.74244   3
 -13   1   0 -2.6212 3.83624   2
  13   1   0 3.94850 3.28900   5
 -13   1   0 1.97368 3.10178   1
 -13   1   0 -6.5427 3.83499   5
 -15  -1   0 107.090 6.56748   6
  15  -1   0 97.0553 8.90707   5
 -15  -1   0 107.454 11.7559   3
 -15   1   0 111.548 10.9023   3
 -15   1   0 109.177 8.32615   5
 -15   1   0 109.456 6.51679   1
 -17  -1   0 43.7563 5.35389   6
  17  -1   0 30.3701 6.54593   5
 -17  -1   0 33.6428 8.55409   3
 -17   1   0 40.0622 6.35398   5
 -17   1   0 29.3451 3.82268   1
 -19  -1   0 64.2718 6.80852   6
 -19  -1   0 51.6202 10.0792   3
 -19   1   0 44.7349 9.49982   3
 -21  -1   0 -3.5899 7.47352   3
 -21   1   0 20.9124 7.87486   3
   0  -2   0 6398.64 104.301   4
   0   2   0 6186.39 102.999   6
   2  -2   0 1372.46 25.0735   2
   2  -2   0 1377.31 25.3595   4
  -2  -2   0 1346.21 25.0588   6
  -2  -2   0 1365.52 25.8135   4
  -2  -2   0 1395.09 23.7968   5
  -2  -2   0 1352.83 25.0511   6
   2  -2   0 1364.01 25.6031   5
  -2  -2   0 1365.06 24.9661   3
  -2   2   0 1381.44 25.4834   4
   2   2   0 1364.13 23.6238   5
   2   2   0 1331.82 25.6994   4
  -2   2   0 1380.82 25.1056   2
  -2   2   0 1343.44 25.5188   5
  -2   2   0 1376.48 22.6312   3
   2   2   0 1364.94 25.0106   6
   2   2   0 1364.06 25.0812   6
  -4  -2   0 546.944 12.5946   6
   4  -2   0 521.556 12.5211   2
   4  -2   0 527.573 12.5598   4
  -4  -2   0 537.911 13.5214   3
   4  -2   0 528.188 13.1818   5
  -4  -2   0 541.717 12.3861   6
  -4  -2   0 552.614 13.6177   4
  -4   2   0 535.785 13.2013   5
  -4   2   0 528.201 11.2177   3
  -4   2   0 522.470 12.4737   2
   4   2   0 502.255 12.9328   4
   4   2   0 550.188 11.9634   6
  -4   2   0 520.795 12.6685   4
  -6  -2   0 7779.30 128.610   4
   6  -2   0 7669.65 128.318   5
  -6  -2   0 7638.21 126.464   6
   6  -2   0 7500.76 127.720   2
  -6  -2   0 7879.40 126.657   6
  -6  -2   0 7755.32 129.426   3
  -6   2   0 7576.98 127.544   4
  -6   2   0 7524.42 127.510   2
   6   2   0 7793.68 124.647   1
  -6   2   0 7452.31 126.778   3
   6   2   0 7516.57 124.690   6
   6   2   0 7518.74 124.491   6
  -6   2   0 7623.46 128.150   5
  -8  -2   0 643.233 17.1330   4
  -8  -2   0 668.614 15.0903   6
  -8  -2   0 668.748 14.8656   6
   8  -2   0 642.877 16.7659   2
  -8  -2   0 674.769 18.4361   3
   8  -2   0 649.307 16.7959   5
   8   2   0 645.781 11.9520   1
  -8   2   0 627.741 16.0848   3
  -8   2   0 608.392 15.8133   1
  -8   2   0 655.846 16.5280   2
  -8   2   0 642.889 16.2578   5
  -8   2   0 611.503 15.8115   4
 -10  -2   0 62.4775 5.51739   6
  10  -2   0 67.7731 7.09506   5
 -10  -2   0 61.8101 5.59262   6
 -10  -2   0 59.4490 7.42779   3
 -10  -2   0 74.7011 7.38194   4
 -10   2   0 62.8457 6.31431   2
 -10   2   0 73.0064 7.12974   3
 -10   2   0 67.7813 5.96591   1
 -10   2   0 71.2156 6.83602   5
 -12  -2   0 15.6719 4.21423   6
  12  -2   0 11.9353 5.24116   5
 -12  -2   0 8.10531 4.92171   4
 -12  -2   0 9.42054 5.20167   3
 -12   2   0 21.3306 5.73873   3
 -12   2   0 28.5659 5.59733   5
 -12   2   0 10.1694 4.44908   2
 -12   2   0 9.25286 3.85320   1
 -14  -2   0 14.7085 4.52395   6
 -14  -2   0 13.4076 7.00421   3
  14  -2   0 10.1510 5.94373   5
 -14   2   0 18.7679 6.33636   3
 -14   2   0 16.7063 4.53417   1
 -14   2   0 18.3179 5.28276   5
  16  -2   0 1.03685 5.79265   5
 -16  -2   0 5.63448 6.43165   3
 -16  -2   0 -0.6982 4.11083   6
 -16   2   0 1.02804 3.92222   1
 -16   2   0 -4.1217 4.82709   5
 -16   2   0 2.16984 5.89088   3
 -18  -2   0 1.36689 6.79294   3
 -18  -2   0 -4.4005 4.14555   6
  18  -2   0 3.03302 5.81376   5
 -18   2   0 -2.7817 3.35580   1
 -18   2   0 3.79766 6.14676   3
 -18   2   0 2.56994 4.65896   4
 -20  -2   0 5.33527 5.40063   6
 -20  -2   0 5.47495 7.60232   3
 -20   2   0 6.55876 5.09903   4
 -20   2   0 -4.0993 6.26200   3
 -20   2   0 -0.2087 3.25674   1
   1  -3   0 2186.64 39.9788   5
  -1  -3   0 2153.79 39.0094   5
  -1  -3   0 2219.21 39.1896   6
  -1  -3   0 2270.00 39.2728   6
   1  -3   0 2168.57 36.9110   6
   1  -3   0 2169.27 36.7031   6
  -1  -3   0 2206.04 38.2128   3
   1  -3   0 2166.67 40.1726   4
  -1   3   0 2277.85 40.6616   4
  -1   3   0 2227.85 40.3434   5
  -1   3   0 2235.60 38.3940   6
   1   3   0 2256.36 40.7483   4
  -1   3   0 2223.28 38.2400   6
   1   3   0 2255.79 39.6688   6
   1   3   0 2222.72 39.0798   5
   3  -3   0 59.6525 5.57556   4
  -3  -3   0 62.7596 5.83430   6
  -3  -3   0 65.7062 5.21448   3
  -3  -3   0 63.0688 6.50271   4
  -3  -3   0 58.5905 5.58484   6
   3  -3   0 57.2856 5.13817   2
   3  -3   0 61.5985 6.40640   5
  -3   3   0 53.1267 5.54074   5
   3   3   0 59.0180 5.49622   6
   3   3   0 55.9897 3.72220   5
   3   3   0 51.5010 5.40207   6
   3   3   0 58.5968 5.84696   4
  -3   3   0 56.9220 2.35971   3
  -3   3   0 56.0718 5.64530   4
  -3   3   0 63.5396 4.95088   2
  -5  -3   0 5251.17 91.8173   4
  -5  -3   0 5367.04 90.7437   6
   5  -3   0 5461.68 92.1682   5
   5  -3   0 5139.98 90.6989   2
  -5  -3   0 5278.41 90.5505   6
  -5  -3   0 5292.35 91.8472   3
   5  -3   0 5412.16 91.0178   4
   5   3   0 5305.32 86.5932   5
  -5   3   0 5264.69 91.0083   4
   5   3   0 5339.89 89.9486   6
  -5   3   0 5348.49 88.1997   3
   5   3   0 5399.14 92.2419   4
  -5   3   0 5416.04 90.8229   2
   5   3   0 5289.87 89.9079   6
  -5   3   0 5190.67 91.5401   5
  -7  -3   0 50.7048 6.05139   6
  -7  -3   0 59.3422 6.50373   6
  -7  -3   0 53.6045 6.75415   3
   7  -3   0 58.7562 6.81571   5
   7  -3   0 45.0873 5.37601   2
  -7  -3   0 53.5745 5.93958   4
  -7   3   0 56.7835 6.16418   4
   7   3   0 58.2732 5.07058   6
  -7   3   0 53.4786 5.92397   5
  -7   3   0 52.5038 5.47967   2
   7   3   0 54.7783 5.15089   6
   7   3   0 51.5475 5.15831   6
   7   3   0 60.0119 4.46039   1
  -7   3   0 46.1713 4.85735   3
  -9  -3   0 17.7578 5.90282   3
  -9  -3   0 21.4396 5.33199   4
  -9  -3   0 25.2235 6.38621   6
   9  -3   0 22.5148 5.01884   2
  -9   3   0 20.9077 4.12092   3
  -9   3   0 20.3722 4.54726   4
  -9   3   0 19.0964 4.42691   2
  -9   3   0 27.5586 5.34127   5
   9   3   0 19.3484 2.62813   1
  -9   3   0 22.6381 4.59629   1
 -11  -3   0 51.1212 7.14607   4
 -11  -3   0 58.2030 8.37986   3
  11  -3   0 46.2656 6.61611   5
  11  -3   0 51.1849 7.08408   2
 -11  -3   0 45.0632 6.13099   6
 -11   3   0 52.2700 7.39295   2
 -11   3   0 53.7006 6.12737   1
 -11   3   0 42.0853 6.11159   5
 -11   3   0 57.1350 6.30051   3
 -13  -3   0 171.043 12.7110   3
  13  -3   0 134.110 10.2018   5
 -13  -3   0 143.900 9.37440   6
 -13   3   0 146.660 9.50339   5
 -13   3   0 139.297 9.49759   1
 -13   3   0 126.501 9.08149   2
 -13   3   0 119.128 9.56640   4
 -13   3   0 157.075 10.1540   3
  15  -3   0 175.051 12.0907   5
 -15  -3   0 159.046 10.0426   6
 -15   3   0 183.987 11.8986   3
 -15   3   0 187.726 11.2896   4
  17  -3   0 33.1918 7.67497   5
 -17  -3   0 14.3528 7.11285   3
 -17  -3   0 12.2977 5.36217   6
 -17   3   0 26.8778 6.95827   3
 -17   3   0 18.3152 5.59241   4
 -17   3   0 23.1634 5.62722   1
  19  -3   0 9.15503 6.90185   5
 -19  -3   0 3.55197 4.86240   6
 -19  -3   0 -4.8672 7.34146   3
 -19   3   0 -4.0555 3.93202   1
 -19   3   0 0.33877 4.79150   4
 -19   3   0 -7.6384 6.10181   3
 -21  -3   0 9.44103 7.79987   3
 -21   3   0 5.42146 7.87797   3
 -21   3   0 19.7988 6.41079   4
   0  -4   0 4215.13 74.3141   4
   0  -4   0 4202.52 71.3165   6
   0  -4   0 4111.62 73.0984   5
   0   4   0 4217.61 72.4933   6
   0   4   0 4358.60 74.7988   4
   0   4   0 4312.84 73.4870   5
   2  -4   0 7006.77 118.465   4
   2  -4   0 7097.43 118.604   5
  -2  -4   0 7043.96 116.242   3
  -2  -4   0 6978.74 118.912   4
  -2  -4   0 7004.71 117.144   6
  -2  -4   0 6727.65 116.149   5
  -2  -4   0 7129.50 117.309   6
   2  -4   0 6794.93 117.918   2
  -2   4   0 7105.88 118.796   4
  -2   4   0 7087.85 115.360   6
   2   4   0 7225.27 119.371   4
  -2   4   0 6846.10 115.035   6
   2   4   0 6980.15 117.502   6
  -2   4   0 6867.74 118.156   5
   2   4   0 6850.21 117.606   6
   4  -4   0 2567.07 48.7392   2
   4  -4   0 2644.50 49.2659   4
  -4  -4   0 2660.05 48.7974   3
  -4  -4   0 2644.80 50.0691   4
  -4  -4   0 2705.14 48.8892   6
   4  -4   0 2703.10 49.9939   5
  -4  -4   0 2610.64 48.7396   6
  -4   4   0 2673.41 48.7446   2
   4   4   0 2633.21 45.7997   5
   4   4   0 2702.50 48.6437   6
  -4   4   0 2684.37 49.5229   4
   4   4   0 2699.09 50.2928   4
   4   4   0 2589.15 48.3839   6
  -4   4   0 2637.86 49.6675   5
   6  -4   0 360.943 12.2520   2
   6  -4   0 379.591 13.3805   5
  -6  -4   0 390.080 13.6942   4
  -6  -4   0 353.360 12.2473   6
  -6  -4   0 375.403 12.5034   6
  -6  -4   0 344.276 12.4036   3
   6  -4   0 370.656 12.3011   4
  -6   4   0 387.222 12.5616   4
   6   4   0 381.262 11.8508   6
  -6   4   0 381.380 12.1462   2
  -6   4   0 351.726 12.8322   5
   6   4   0 362.740 13.5399   4
  -6   4   0 372.642 9.01490   3
   6   4   0 372.487 8.08712   5
   6   4   0 376.501 11.7094   6
  -8  -4   0 1016.38 23.7923   6
  -8  -4   0 1031.29 25.3174   4
  -8  -4   0 1025.01 23.6105   6
  -8  -4   0 1047.69 25.5061   3
   8  -4   0 1029.70 23.9377   2
   8  -4   0 1030.57 25.1182   5
   8   4   0 986.750 21.6640   6
  -8   4   0 1002.55 21.1733   3
   8   4   0 972.775 21.5738   6
   8   4   0 1059.65 21.9604   6
  -8   4   0 1077.25 24.2495   4
  -8   4   0 997.458 23.3759   2
 -10  -4   0 1085.99 25.7971   6
 -10  -4   0 1185.45 29.1362   3
 -10  -4   0 1108.49 26.1701   6
 -10  -4   0 1118.18 27.9032   4
  10  -4   0 1124.51 27.6092   5
  10  -4   0 1145.85 26.9297   2
 -10   4   0 1131.89 27.7042   1
  10   4   0 1118.60 21.3811   6
 -10   4   0 1107.66 24.4573   3
 -10   4   0 1126.69 26.3862   2
  10   4   0 1128.93 22.2495   1
  10   4   0 1132.48 21.5185   6
 -10   4   0 1078.48 27.1504   5
 -10   4   0 1145.38 26.8665   4
 -12  -4   0 1619.09 35.6407   6
 -12  -4   0 1677.29 39.6915   3
  12  -4   0 1679.59 37.7418   5
  12  -4   0 1691.87 36.9805   2
 -12   4   0 1616.62 36.3192   2
  12   4   0 1655.18 29.2404   1
 -12   4   0 1679.45 38.4835   3
 -12   4   0 1716.94 36.9037   4
 -12   4   0 1691.23 37.1756   1
 -14  -4   0 272.623 12.7119   6
  14  -4   0 268.154 13.3708   2
  14  -4   0 281.794 14.4935   5
 -14  -4   0 293.043 16.2263   3
 -14   4   0 263.143 12.8076   1
 -14   4   0 272.584 12.7498   3
 -14   4   0 263.283 13.0467   4
  16  -4   0 6.41935 6.85558   5
 -16  -4   0 8.53961 5.41195   6
 -16  -4   0 10.7201 7.26271   3
 -16   4   0 16.6098 5.63714   4
 -16   4   0 7.14348 5.06975   1
 -16   4   0 -2.5011 5.25288   3
 -18  -4   0 37.8078 9.16437   3
  18  -4   0 58.9506 10.1254   5
 -18  -4   0 59.8727 8.08455   6
 -18   4   0 74.5389 9.02463   4
 -18   4   0 77.0993 9.03736   3
 -18   4   0 59.7495 7.59985   1
 -20  -4   0 98.7176 21.7288   3
 -20   4   0 134.991 11.3520   4
 -20   4   0 154.722 12.6986   3
 -20   4   0 115.800 10.0681   1
   1  -5   0 258.998 6.77898   6
   1  -5   0 270.515 6.84723   6
  -1  -5   0 271.031 7.86046   3
  -1  -5   0 259.968 10.0450   5
  -1  -5   0 277.784 9.32731   6
   1  -5   0 268.057 5.68909   3
  -1  -5   0 270.917 11.2074   6
  -1  -5   0 265.650 11.2984   4
   1  -5   0 273.952 10.7075   4
   1  -5   0 281.704 10.9410   5
   1   5   0 265.488 9.97344   6
  -1   5   0 271.187 11.4608   4
   1   5   0 257.504 10.1610   6
  -1   5   0 267.584 9.25181   6
  -1   5   0 262.872 9.42966   6
   1   5   0 261.932 9.63925   5
  -1   5   0 264.186 10.4167   5
   1   5   0 290.624 11.6151   4
  -3  -5   0 51.1323 5.48760   5
  -3  -5   0 59.4859 6.64423   6
   3  -5   0 58.3652 6.45667   4
   3  -5   0 67.9285 7.59853   5
   3  -5   0 45.9839 5.60068   2
  -3  -5   0 60.2689 5.58283   3
  -3  -5   0 58.7460 6.89224   4
  -3  -5   0 57.0942 6.82996   6
   3   5   0 52.3997 6.03533   6
  -3   5   0 50.1744 4.87406   6
   3   5   0 54.2630 5.19799   5
  -3   5   0 64.4171 6.86016   4
   3   5   0 54.6878 5.97598   6
   3   5   0 67.3311 8.48650   4
  -3   5   0 53.0710 4.52983   6
  -3   5   0 60.1899 6.46447   5
   5  -5   0 99.7375 7.77153   4
  -5  -5   0 100.137 7.98022   4
  -5  -5   0 86.7075 7.24691   3
   5  -5   0 99.6809 8.20428   5
   5  -5   0 91.1299 7.37881   2
  -5  -5   0 86.2378 7.77878   6
  -5  -5   0 92.7972 8.15970   6
   5   5   0 98.3839 5.29164   5
  -5   5   0 104.597 8.26040   4
  -5   5   0 103.748 8.73566   5
   5   5   0 95.3452 7.86668   6
   5   5   0 103.273 9.08390   4
   5   5   0 101.257 8.02816   6
   7  -5   0 74.4340 7.34356   4
  -7  -5   0 90.1825 8.86452   4
   7  -5   0 63.4416 7.10496   2
   7  -5   0 86.3292 9.05336   5
  -7  -5   0 76.2310 7.74021   6
  -7  -5   0 76.6119 8.13653   6
  -7  -5   0 80.5017 9.16784   3
  -7   5   0 78.2505 8.82635   4
   7   5   0 74.9406 3.93759   5
  -7   5   0 65.9047 7.08501   5
  -7   5   0 76.4430 6.74778   2
  -7   5   0 74.9669 4.23396   3
   7   5   0 78.0890 7.49343   6
   7   5   0 77.1883 7.30484   6
   7   5   0 72.4864 8.25100   4
  -9  -5   0 1155.07 27.8749   6
  -9  -5   0 1225.46 29.7690   3
  -9  -5   0 1153.06 29.3945   4
  -9  -5   0 1208.13 28.3802   6
   9  -5   0 1190.20 28.0450   2
   9  -5   0 1207.21 29.7460   5
  -9   5   0 1160.52 24.0612   3
  -9   5   0 1237.29 28.5913   4
   9   5   0 1177.80 25.5943   6
  11  -5   0 83.1592 8.64376   2
  11  -5   0 85.9183 9.88020   5
 -11  -5   0 66.1692 8.14753   6
 -11  -5   0 56.6475 8.05526   3
  11   5   0 69.6692 5.90446   6
  11   5   0 65.6829 5.90537   1
  11   5   0 75.5302 6.14054   6
 -11   5   0 71.5226 7.52531   2
 -11   5   0 66.0358 7.99977   1
 -11   5   0 60.5127 6.33926   3
 -11   5   0 62.6250 7.69710   4
  13  -5   0 -0.1090 6.68401   5
 -13  -5   0 4.06566 5.71309   6
 -13  -5   0 -6.2731 5.53724   3
  13  -5   0 0.88521 5.02622   2
 -13   5   0 4.10978 5.07933   1
 -13   5   0 -1.8059 4.86893   3
  13   5   0 -1.7906 2.52299   1
  13   5   0 0.11027 2.31309   1
 -13   5   0 2.21627 4.80577   4
  15  -5   0 8.76959 10.7339   5
  15  -5   0 -3.4640 5.24792   2
 -15  -5   0 0.26100 5.34289   6
 -15  -5   0 6.42775 7.12920   3
 -15   5   0 0.69702 4.74694   3
 -15   5   0 0.50868 4.84188   4
 -15   5   0 3.72376 5.12453   1
  17  -5   0 70.9468 10.8216   5
 -17  -5   0 48.7898 10.4912   3
 -17  -5   0 48.2446 8.61050   6
 -17   5   0 49.8498 7.48818   3
 -17   5   0 51.9673 8.01803   4
 -17   5   0 47.6652 7.29113   1
  19  -5   0 55.8190 10.2209   5
 -19  -5   0 31.4324 7.78182   6
 -19  -5   0 31.7280 10.0641   3
 -19   5   0 47.1531 8.06620   4
 -19   5   0 37.0187 7.08905   1
   0  -6   0 772.817 16.8834   6
   0  -6   0 774.017 19.7830   5
   0  -6   0 787.670 15.4082   3
   0   6   0 764.774 19.4406   6
   0   6   0 759.639 19.5284   5
   0   6   0 775.151 21.3694   4
   0   6   0 767.386 19.0410   6
  -2  -6   0 242.594 8.52287   3
   2  -6   0 254.394 11.5506   5
  -2  -6   0 241.324 9.91425   6
  -2  -6   0 234.895 11.4833   4
  -2  -6   0 251.743 9.88178   5
   2  -6   0 253.533 15.8892   4
  -2  -6   0 237.211 9.79498   6
   2  -6   0 227.840 13.8322   2
  -2   6   0 230.437 10.5261   5
   2   6   0 245.861 10.6844   6
   2   6   0 239.123 12.1911   4
   2   6   0 238.120 9.69586   5
  -2   6   0 229.434 9.03523   6
  -2   6   0 230.173 11.6148   4
  -2   6   0 240.306 9.58207   6
   2   6   0 239.381 11.0722   6
  -4  -6   0 34.0949 5.76463   6
  -4  -6   0 19.6245 5.09193   4
   4  -6   0 30.4256 6.86628   5
  -4  -6   0 23.3920 4.71584   3
   4  -6   0 30.0434 5.56895   2
  -4  -6   0 29.2933 6.24474   6
   4   6   0 29.2090 4.36365   5
  -4   6   0 31.2427 3.94771   6
   4   6   0 32.7901 6.13328   6
  -4   6   0 31.2648 6.40844   4
  -4   6   0 23.4124 5.44759   5
   4   6   0 19.2862 5.45235   4
  -4   6   0 28.1118 4.09948   6
   4   6   0 26.4738 5.44364   6
  -6  -6   0 82.9523 8.36457   6
  -6  -6   0 75.0361 8.89183   6
  -6  -6   0 92.9335 9.68791   3
   6  -6   0 76.5873 7.87068   2
   6  -6   0 78.5811 9.19443   5
  -6  -6   0 73.3422 8.70512   4
   6  -6   0 83.9864 8.15129   4
  -6   6   0 97.9254 9.13408   4
  -6   6   0 71.7844 4.16323   6
   6   6   0 76.6127 8.29469   6
  -6   6   0 82.9534 4.18302   6
  -6   6   0 77.3312 7.59667   5
   6   6   0 78.2739 8.57130   4
   6   6   0 85.0760 8.45603   6
   6   6   0 70.3728 5.31821   5
  -8  -6   0 47.0647 7.39911   3
   8  -6   0 57.3602 7.33091   2
   8  -6   0 44.6370 7.74980   5
   8  -6   0 53.8462 7.03085   4
  -8  -6   0 42.2685 7.15519   6
  -8  -6   0 43.1326 8.28174   6
   8   6   0 47.8365 8.14299   4
   8   6   0 47.4080 6.71420   6
  -8   6   0 48.5767 7.34115   4
  -8   6   0 43.2465 3.59067   3
   8   6   0 49.2103 6.81987   6
  -8   6   0 41.7067 6.29146   2
   8   6   0 43.0288 3.71720   5
 -10  -6   0 188.077 12.7332   3
  10  -6   0 200.544 11.5625   2
  10  -6   0 197.805 12.3935   5
 -10   6   0 199.690 11.8264   4
 -10   6   0 194.395 7.77261   3
  10   6   0 200.357 10.0995   6
 -10   6   0 195.146 10.6765   2
 -10   6   0 207.836 12.6494   1
  12  -6   0 2.48091 7.29067   5
 -12  -6   0 -6.6916 5.99350   3
  12  -6   0 2.13115 5.45447   2
  12   6   0 0.25011 3.88112   6
 -12   6   0 -4.2091 4.77611   4
  12   6   0 6.33640 3.77352   1
 -12   6   0 1.10185 3.57567   3
  12   6   0 -0.0598 4.31782   6
 -12   6   0 -5.5123 5.24827   1
 -14  -6   0 1.51949 6.31572   3
  14  -6   0 0.60685 6.89254   5
  14  -6   0 -3.1192 5.49189   2
 -14   6   0 -3.9299 5.21473   4
 -14   6   0 2.80873 4.23268   3
  14   6   0 1.51084 2.67447   1
 -14   6   0 1.46478 5.34635   1
  16  -6   0 18.0313 7.94469   5
 -16  -6   0 7.88587 10.7504   6
 -16  -6   0 6.70457 6.80375   3
 -16   6   0 12.2712 6.04310   4
 -16   6   0 14.3370 5.85558   1
 -16   6   0 11.9766 4.95983   3
 -18  -6   0 5.77302 7.44316   3
  18  -6   0 4.65945 7.78562   5
 -18  -6   0 10.2004 6.88767   6
 -18   6   0 13.5700 6.34542   4
 -18   6   0 -2.3207 4.25882   3
  -1  -7   0 198.273 12.6960   4
  -1  -7   0 186.043 10.0766   5
  -1  -7   0 189.964 7.02985   3
   1  -7   0 184.347 10.8469   2
   1  -7   0 184.169 10.7637   5
   1  -7   0 194.849 11.3632   4
  -1  -7   0 198.499 8.60852   6
  -1  -7   0 197.070 8.52853   6
   1   7   0 185.321 9.68467   5
   1   7   0 181.030 9.99302   6
  -1   7   0 197.949 12.1021   4
  -1   7   0 166.271 9.07076   6
   1   7   0 173.530 10.5633   6
   1   7   0 197.657 11.5135   4
  -1   7   0 190.116 9.97217   6
  -1   7   0 201.080 10.6357   5
   3  -7   0 1009.29 25.2404   2
  -3  -7   0 969.913 23.3031   6
   3  -7   0 893.610 24.7856   4
   3  -7   0 972.503 25.8347   5
  -3  -7   0 951.836 23.2925   6
  -3  -7   0 975.875 21.9694   3
  -3   7   0 987.742 22.7077   6
   3   7   0 982.942 26.8776   4
  -3   7   0 974.802 25.3990   5
   3   7   0 963.804 22.6584   5
   3   7   0 942.909 24.6843   6
  -3   7   0 955.384 25.6465   4
   3   7   0 995.269 25.0753   6
  -5  -7   0 974.353 24.9915   6
   5  -7   0 975.380 25.2503   2
   5  -7   0 934.883 27.3404   4
  -5  -7   0 989.833 24.6765   6
   5  -7   0 966.231 26.4322   5
  -5  -7   0 947.991 23.3684   3
   5   7   0 941.272 24.8139   6
  -5   7   0 981.124 26.3844   4
   5   7   0 969.054 24.8722   6
   5   7   0 946.948 21.6560   5
  -5   7   0 946.741 21.2244   6
   5   7   0 1005.23 27.2499   4
  -7  -7   0 731.329 20.7790   3
  -7  -7   0 700.890 20.8982   6
   7  -7   0 680.379 22.5636   5
  -7  -7   0 706.176 21.4459   6
   7  -7   0 726.381 21.3127   2
  -7   7   0 729.169 22.1367   4
   7   7   0 709.030 23.2872   4
   7   7   0 702.418 16.4091   5
  -7   7   0 708.186 15.5683   6
   7   7   0 719.206 21.1842   6
   7   7   0 697.940 20.6048   6
  -9  -7   0 63.0451 8.49851   6
   9  -7   0 78.4739 10.0497   5
  -9  -7   0 82.8153 9.12657   3
  -9  -7   0 75.0599 9.68198   6
   9  -7   0 60.1710 8.16988   2
   9   7   0 82.2022 9.38048   6
   9   7   0 70.5056 4.35455   5
   9   7   0 75.8822 9.40369   4
   9   7   0 76.3974 8.68903   6
  -9   7   0 73.5359 8.95302   4
 -11  -7   0 212.048 13.7280   3
  11  -7   0 213.024 14.6191   5
  11  -7   0 220.945 13.1349   2
 -11  -7   0 227.011 14.1932   6
  11   7   0 212.965 11.2522   6
  11   7   0 206.374 10.4991   1
 -11   7   0 220.607 7.48980   3
  11   7   0 173.204 11.1773   6
  11   7   0 184.160 11.3195   6
 -11   7   0 206.609 13.0023   4
 -11   7   0 198.692 14.0512   1
 -13  -7   0 213.719 14.1905   6
  13  -7   0 206.086 12.9194   2
  13  -7   0 215.896 14.0980   5
 -13  -7   0 221.464 15.1903   3
  13   7   0 202.913 9.38763   6
 -13   7   0 206.134 15.9689   1
 -13   7   0 197.721 8.91440   3
  13   7   0 203.002 9.86230   1
 -13   7   0 224.176 13.1339   4
  13   7   0 179.295 9.68586   1
  13   7   0 189.509 9.19103   6
  15  -7   0 18.0198 8.83808   5
 -15  -7   0 22.1344 7.89544   3
  15  -7   0 14.7330 10.8786   2
 -15  -7   0 12.9129 6.99342   6
  15   7   0 17.1871 3.79912   1
  15   7   0 23.7065 3.67652   1
 -15   7   0 17.8761 6.80686   1
  17  -7   0 21.4215 7.17271   2
  17  -7   0 9.20280 7.79808   5
 -17  -7   0 14.3472 7.37239   6
 -17  -7   0 14.4317 7.91428   3
 -17   7   0 25.4285 6.74177   4
 -17   7   0 13.1557 5.02389   3
 -17   7   0 12.3933 6.35572   1
   0  -8   0 467.528 11.8259   6
   0  -8   0 461.430 11.7767   6
   0  -8   0 463.402 16.7234   5
   0  -8   0 462.612 10.4768   3
   0   8   0 454.863 16.5063   6
   0   8   0 437.336 18.3841   4
   0   8   0 451.870 16.1596   5
  -2  -8   0 1057.92 25.9145   5
  -2  -8   0 1077.07 24.5763   6
   2  -8   0 1082.54 28.2672   5
   2  -8   0 1087.76 28.2612   2
  -2  -8   0 1082.19 22.9997   3
   2   8   0 1061.12 29.4913   4
   2   8   0 1025.81 27.9987   6
  -2   8   0 1030.82 25.6181   6
   2   8   0 995.392 25.5401   5
  -2   8   0 1089.55 29.4506   4
   2   8   0 1063.05 27.5302   6
  -4  -8   0 94.6150 9.09932   6
   4  -8   0 94.6721 9.79529   2
   4  -8   0 102.280 11.2093   5
  -4  -8   0 85.0467 7.68890   3
  -4  -8   0 94.9123 9.13524   6
   4   8   0 92.9779 9.97046   6
   4   8   0 86.3992 9.91118   4
   4   8   0 91.8553 10.0050   6
  -4   8   0 101.441 8.58739   6
   4   8   0 97.3482 7.96200   5
  -4   8   0 102.339 11.1606   4
  -6  -8   0 703.023 21.4834   6
   6  -8   0 699.114 22.0781   2
  -6  -8   0 753.273 21.1094   3
   6  -8   0 704.115 22.9764   5
  -6  -8   0 742.108 21.9877   6
  -6   8   0 698.928 18.0905   6
   6   8   0 681.679 21.3668   6
   6   8   0 695.690 23.8715   4
   6   8   0 720.396 18.1465   5
  -6   8   0 708.370 23.0651   4
   6   8   0 694.472 21.8895   6
   8  -8   0 530.279 18.7930   2
  -8  -8   0 540.257 19.0161   3
  -8  -8   0 527.769 19.2760   6
  -8  -8   0 503.626 18.2740   6
  -8   8   0 520.805 19.7686   4
   8   8   0 535.806 18.7416   6
   8   8   0 518.162 13.6364   5
  -8   8   0 530.687 13.8463   6
   8   8   0 530.711 18.8645   6
  10  -8   0 391.454 18.9155   5
 -10  -8   0 415.908 26.4220   6
 -10  -8   0 366.794 16.9812   3
  10  -8   0 407.068 17.1888   2
 -10  -8   0 411.895 18.0399   6
  10   8   0 380.061 15.3519   6
 -10   8   0 381.149 17.5211   4
 -10   8   0 405.071 19.6737   1
  10   8   0 399.402 16.0519   6
 -10   8   0 384.041 10.8169   6
  10   8   0 416.377 19.3102   4
 -12  -8   0 369.775 17.8415   6
  12  -8   0 325.128 15.9526   2
  12  -8   0 324.579 17.3170   5
 -12  -8   0 332.382 17.4759   3
 -12   8   0 306.898 23.0088   4
  12   8   0 305.320 15.6743   1
  12   8   0 322.151 13.8662   6
  12   8   0 332.326 13.9992   6
 -12   8   0 336.993 18.7413   1
  12   8   0 352.451 14.1750   6
 -14  -8   0 47.3745 9.53871   6
  14  -8   0 55.6996 9.10076   2
 -14  -8   0 41.5831 9.29519   3
  14  -8   0 45.9849 10.3853   5
  14   8   0 52.1551 6.32917   6
  14   8   0 36.1763 5.92371   1
 -14   8   0 40.1951 8.97083   1
 -14   8   0 49.0544 8.50736   4
  14   8   0 56.0622 7.23657   6
 -14   8   0 43.4246 4.49920   3
  14   8   0 49.8544 7.74148   1
 -16  -8   0 -5.8862 6.65752   6
 -16  -8   0 -7.6518 6.85063   3
  16  -8   0 2.13838 8.13949   5
  16  -8   0 2.54338 5.84737   2
 -16   8   0 -6.5839 5.58810   1
 -16   8   0 1.24529 5.72044   4
 -16   8   0 -0.8439 3.97958   3
  16   8   0 -5.0311 3.17763   1
   1  -9   0 58.1367 8.76880   2
  -1  -9   0 42.3544 5.49758   6
  -1  -9   0 48.3514 5.83884   6
   1  -9   0 46.6783 8.63420   5
  -1  -9   0 54.3966 5.07788   3
  -1   9   0 45.9408 8.67327   4
   1   9   0 46.1133 8.97681   4
   1   9   0 55.2514 9.83809   6
  -1   9   0 58.8556 8.53110   6
   3  -9   0 29.2821 8.33517   5
   3  -9   0 24.8453 7.15875   2
  -3  -9   0 19.7075 4.75459   3
   3   9   0 23.5506 7.59895   6
  -3   9   0 26.9099 6.28497   6
   3   9   0 30.6807 6.25117   5
  -3   9   0 22.3978 8.26790   4
  -5  -9   0 267.358 14.1028   6
  -5  -9   0 273.400 12.2946   3
   5  -9   0 266.373 14.1073   2
  -5  -9   0 267.465 12.9744   6
  -5   9   0 275.970 12.2214   6
   5   9   0 264.666 13.9671   6
   5   9   0 266.366 14.6713   6
   5   9   0 252.780 11.4797   5
  -5   9   0 284.092 15.7598   4
   5   9   0 253.981 15.9011   4
  -7  -9   0 46.1199 8.41384   6
   7  -9   0 51.3303 9.11815   5
  -7  -9   0 57.4617 8.28405   6
  -7  -9   0 46.6700 7.41610   3
   7  -9   0 54.0640 8.30934   2
   7   9   0 52.4491 9.70912   4
   7   9   0 48.1707 5.62988   5
   7   9   0 54.8895 11.8321   6
  -7   9   0 48.3065 5.96017   6
   7   9   0 61.3866 8.88977   6
  -7   9   0 49.1694 10.5060   4
  -9  -9   0 40.7704 8.59434   6
   9  -9   0 37.2125 10.0024   5
   9  -9   0 49.3517 8.25629   2
  -9  -9   0 39.0239 7.73789   3
  -9   9   0 22.6872 7.09060   1
   9   9   0 42.8905 8.14136   6
   9   9   0 38.9981 4.72344   5
  -9   9   0 39.3697 8.94935   4
  -9   9   0 45.8589 5.61892   6
   9   9   0 40.7334 8.01978   6
   9   9   0 44.1795 9.08575   4
 -11  -9   0 31.7006 10.1617   3
  11  -9   0 47.1044 8.55910   2
  11  -9   0 44.9902 9.86192   5
 -11  -9   0 48.7452 9.19340   6
 -11   9   0 64.2677 5.61130   6
 -11   9   0 36.3505 8.48400   1
  11   9   0 44.9977 7.15344   6
 -11   9   0 49.6715 9.02762   4
  11   9   0 45.0795 8.24909   6
  11   9   0 40.7505 9.35668   4
 -13  -9   0 0.14768 7.31444   6
  13  -9   0 2.32243 6.43295   2
 -13  -9   0 1.29503 6.75838   3
  13  -9   0 -0.5793 7.90849   5
  13   9   0 -0.1694 5.30579   6
 -13   9   0 4.06886 7.49275   1
  13   9   0 4.99496 7.42086   6
  13   9   0 8.48575 5.19203   1
  13   9   0 14.4801 7.00296   6
  13   9   0 -9.9178 5.62616   1
 -13   9   0 -5.5628 5.49787   4
 -15  -9   0 -1.2115 6.42810   6
  15  -9   0 -0.1094 8.67667   5
  15  -9   0 2.20659 6.52532   2
 -15  -9   0 1.33357 7.21686   3
  15   9   0 -7.1244 4.08529   1
  15   9   0 -0.0279 4.00737   6
  15   9   0 -6.0984 4.48816   6
 -15   9   0 4.77465 7.13562   1
 -15   9   0 3.92309 6.49566   4
   0 -10   0 63.8251 9.49416   2
   0  10   0 91.4082 11.7027   4
  -2 -10   0 11.0631 4.88812   6
  -2 -10   0 8.43745 3.53935   3
  -2 -10   0 8.78924 4.23796   6
   2 -10   0 12.6013 10.4571   2
   2  10   0 6.96928 7.64432   4
  -2  10   0 5.92200 5.99075   6
  -2  10   0 10.8365 7.43073   4
   2  10   0 -2.0473 6.54366   6
   4 -10   0 -3.7325 8.84195   2
  -4 -10   0 4.24305 5.04926   6
  -4 -10   0 13.6961 4.78165   3
   4 -10   0 7.83869 7.55256   5
  -4  10   0 9.16160 7.00225   4
   4  10   0 10.7755 6.62799   6
  -4  10   0 4.11878 5.59487   6
   4  10   0 4.18937 7.27450   4
  -6 -10   0 39.2726 7.00224   3
  -6 -10   0 52.8603 10.2140   6
   6 -10   0 61.7234 11.1925   5
   6 -10   0 55.8765 9.28957   2
  -6 -10   0 39.1233 7.38002   6
   6  10   0 51.1300 10.3890   6
   6  10   0 43.4097 6.21319   5
   6  10   0 45.4067 9.44769   6
   6  10   0 47.5025 9.04866   4
  -6  10   0 50.4681 9.66062   4
  -6  10   0 60.3599 7.67238   6
  -8 -10   0 5.49608 6.55935   6
   8 -10   0 5.39639 8.51950   5
  -8 -10   0 6.48810 5.81398   3
  -8 -10   0 16.7042 5.57287   6
   8 -10   0 9.66105 6.54927   2
  -8  10   0 0.33102 6.66393   4
   8  10   0 6.39502 6.63576   6
  -8  10   0 1.86974 6.71050   1
   8  10   0 7.47657 4.42857   5
   8  10   0 -12.038 6.81797   4
  -8  10   0 0.03305 4.66421   6
   8  10   0 0.33047 5.89513   6
 -10 -10   0 20.4463 6.72752   6
  10 -10   0 -2.1238 8.62339   5
  10 -10   0 12.8102 6.57975   2
 -10 -10   0 3.59802 7.35848   6
 -10 -10   0 -4.8716 9.44133   3
  10  10   0 16.6750 8.62313   4
 -10  10   0 11.2557 4.68697   6
 -10  10   0 4.45723 7.10980   4
 -10  10   0 5.18375 8.13632   1
  10  10   0 -4.7761 5.88013   6
  10  10   0 2.59955 5.58309   6
 -12 -10   0 -1.4405 6.90352   3
 -12 -10   0 -11.965 6.80147   6
  12 -10   0 5.69406 6.28481   2
 -12  10   0 3.85700 6.84653   4
  12  10   0 -6.5363 4.51525   1
 -12  10   0 7.01230 7.57378   1
   1 -11   0 37.5197 8.73329   2
  -1 -11   0 35.5366 8.89291   2
   1  11   0 33.1499 8.58843   6
  -1  11   0 25.0696 8.15175   6
   1  11   0 12.3156 8.34946   4
  -1  11   0 20.7344 8.90911   4
  -3 -11   0 159.815 9.07618   6
  -3 -11   0 140.648 7.73828   3
   3 -11   0 165.964 13.0206   2
  -3 -11   0 137.794 9.40219   6
  -3  11   0 158.032 15.0556   4
   3  11   0 148.880 15.1287   4
   3  11   0 123.859 13.1674   6
  -3  11   0 126.807 12.0618   6
  -5 -11   0 230.676 12.8852   6
  -5 -11   0 214.661 11.1116   3
   5 -11   0 241.097 16.7129   5
   5 -11   0 227.635 14.4539   2
   5  11   0 215.838 15.2433   6
  -5  11   0 225.437 16.5256   4
  -5  11   0 211.114 13.3383   6
   5  11   0 229.518 17.1069   4
  -7 -11   0 282.587 13.5770   3
  -7 -11   0 276.841 15.3383   6
   7 -11   0 256.172 17.5578   5
  -7 -11   0 281.310 19.6318   6
   7 -11   0 274.362 15.7571   2
   7  11   0 247.785 18.0490   4
  -7  11   0 229.401 12.9788   6
  -7  11   0 260.191 17.4577   4
   7  11   0 304.234 16.8261   6
  -9 -11   0 111.945 10.9645   3
   9 -11   0 91.8848 11.0655   2
  -9 -11   0 84.1689 11.1261   6
   9 -11   0 82.1060 19.7339   5
  -9  11   0 84.2342 12.2563   4
   9  11   0 78.1238 10.8938   6
  -9  11   0 67.9181 17.1804   1
   0 -12   0 86.6433 11.8394   2
   0  12   0 77.2851 10.6791   6
   0  12   0 68.6901 12.0385   4
  -2 -12   0 86.6091 12.2533   2
   2 -12   0 81.8427 11.5041   2
  -2  12   0 63.9506 11.0726   4
  -2  12   0 77.1657 11.0479   6
   2  12   0 56.0257 10.9363   4
   2  12   0 98.3501 16.4001   6
   4 -12   0 21.9858 7.85648   2
  -4 -12   0 20.5224 4.89937   3
  -4 -12   0 32.4184 6.22867   6
  -4 -12   0 37.6407 6.04189   6
   4  12   0 27.9190 8.36109   6
  -4  12   0 29.2113 7.77602   6
  -4  12   0 30.3078 9.76484   4
  -6 -12   0 29.9255 6.92904   6
   6 -12   0 9.62349 7.11899   2
  -6 -12   0 7.57268 5.24221   3
  -6  12   0 23.1178 8.72351   1
  -6  12   0 9.15799 8.46116   4
   6  12   0 18.5444 8.04333   6
   6  12   0 15.7711 9.09268   4
 -22   0   1 3.32797 7.40294   3
 -20   0   1 1.78644 7.19632   3
 -20   0   1 -4.7692 3.31933   6
  20   0  -1 3.12850 4.72149   5
 -18   0   1 -2.6058 6.62936   3
 -18   0   1 -3.7693 2.94575   6
  18   0  -1 -3.6466 4.59438   5
  16   0  -1 4.16918 4.69487   5
 -16   0   1 -2.2633 6.23797   3
 -14   0   1 2.84707 3.98943   2
  14   0  -1 -3.0483 4.12348   5
 -14   0   1 0.62069 4.02884   5
 -14   0   1 -1.4101 5.35474   3
 -12   0   1 5.68088 5.05935   3
 -12   0   1 -1.6421 3.44246   2
  12   0  -1 -2.0853 3.51123   5
 -12   0   1 -0.3579 3.53650   5
 -10   0   1 -3.3911 3.44045   5
 -10   0   1 0.46836 3.97354   3
  10   0  -1 -2.8427 3.16543   5
 -10   0   1 2.10338 2.67130   1
  10   0  -1 6.93880 3.98657   3
 -10   0   1 -4.1100 2.92225   2
   8   0  -1 -5.5329 3.55414   3
  -8   0   1 -1.1148 3.86707   3
  -8   0   1 -0.7484 3.41954   5
   8   0  -1 1.50048 3.12119   5
   6   0  -1 0.01906 2.68817   5
  -6   0   1 -0.9728 1.71591   1
  -6   0   1 -0.7090 3.54603   3
  -6   0   1 0.20750 2.87118   5
   6   0  -1 1.61612 3.03929   3
  -4   0   1 6.26720 1.41249   6
  -4   0   1 8.59617 3.01373   3
   4   0  -1 5.42097 2.53716   3
  -4   0   1 0.88562 1.78551   1
   4   0  -1 7.15644 2.48506   5
  -4   0   1 2.32292 1.36778   6
  -2   0  -1 -2.7248 2.52191   2
  -2   0  -1 2.66048 2.14998   1
   2   0   1 6.46728 2.77367   2
   2   0   1 -0.0473 2.05964   1
   4   0   1 3.64104 2.42617   1
  -4   0  -1 4.39858 3.20368   2
  -4   0  -1 1.57985 2.29271   1
  -4   0  -1 1.22751 2.60195   5
  -6   0  -1 -2.3011 2.21830   1
   6   0   1 1.17423 2.41576   1
  -6   0  -1 0.61794 3.62545   2
  -6   0  -1 0.95724 2.67839   5
  -8   0  -1 -2.1652 2.86235   5
  -8   0  -1 -0.6510 3.80081   2
  -8   0  -1 -0.9425 4.07833   3
   8   0   1 1.68013 2.53065   1
  -8   0  -1 -2.3860 2.42476   1
 -10   0  -1 -3.5349 4.21307   3
 -10   0  -1 -3.2613 2.99916   5
 -10   0  -1 -1.6566 2.49661   1
 -10   0  -1 5.26417 4.25719   2
 -12   0  -1 2.45482 3.32064   5
 -12   0  -1 -0.6813 2.65768   1
 -12   0  -1 -0.9373 5.38312   3
 -14   0  -1 -2.9735 2.60911   1
 -14   0  -1 6.38397 6.33070   3
 -14   0  -1 -5.4700 3.63324   5
 -16   0  -1 2.17532 2.63249   1
 -16   0  -1 0.65801 3.92260   5
 -16   0  -1 -2.5896 6.25288   3
 -18   0  -1 7.07420 7.26367   3
 -18   0  -1 -8.3616 5.31617   5
 -18   0  -1 5.35155 3.45589   6
 -20   0  -1 4.72847 7.04658   3
  21  -1  -1 18.0477 5.82074   5
 -21  -1   1 9.27132 8.40042   3
 -21  -1   1 18.7090 6.14998   6
 -21   1   1 22.9458 8.50035   3
 -19  -1   1 0.18883 6.42762   3
  19  -1  -1 6.04542 5.55079   5
 -19  -1   1 9.20533 4.21184   6
 -19   1   1 4.97620 7.30758   3
  19   1  -1 2.90057 3.97731   5
 -17  -1   1 141.006 7.74450   6
  17  -1  -1 137.252 10.0795   5
  17   1  -1 149.550 8.09490   5
 -17   1   1 153.531 9.82705   5
 -17   1   1 143.089 12.1586   3
 -17   1   1 126.776 5.86151   1
 -15  -1   1 846.221 25.2180   3
  15  -1  -1 805.769 21.2830   5
 -15  -1   1 769.000 18.3180   6
 -15   1   1 788.484 22.0277   2
 -15   1   1 781.998 21.0071   5
 -15   1   1 837.179 24.5431   3
  15   1  -1 788.478 18.5308   5
 -15   1   1 819.111 17.5598   1
  13  -1  -1 841.146 20.8121   5
 -13  -1   1 797.733 17.1171   6
 -13  -1   1 853.435 24.1963   3
  13   1  -1 821.784 18.2913   5
 -13   1   1 854.201 23.2580   3
 -13   1   1 809.840 20.3821   5
 -13   1   1 841.174 21.3445   2
 -13   1   1 818.712 17.7104   1
  11  -1  -1 1172.86 25.7039   5
 -11  -1   1 1214.87 28.5717   3
 -11  -1   1 1216.04 22.6543   6
 -11  -1   1 1176.34 22.4775   6
 -11   1   1 1198.84 30.6063   3
 -11   1   1 1167.67 25.7127   2
 -11   1   1 1179.41 23.4589   1
  11   1  -1 1203.31 23.4649   5
 -11   1   1 1204.67 25.7837   5
  -9  -1   1 11.9436 2.67626   6
   9  -1  -1 7.90273 4.12246   3
  -9  -1   1 8.90170 4.80732   3
  -9  -1   1 9.90701 2.91227   6
   9  -1  -1 15.9176 4.39248   5
   9   1  -1 8.24441 3.01153   5
  -9   1   1 9.17403 4.25958   3
   9   1  -1 7.83142 4.63084   3
  -9   1   1 18.4308 4.16636   5
  -9   1   1 10.1503 3.46543   2
   7  -1  -1 9551.09 154.323   3
   7  -1  -1 9278.50 153.544   5
  -7  -1   1 9194.59 155.045   3
  -7  -1   1 9188.00 151.179   6
  -7  -1   1 9535.29 151.332   6
  -7   1   1 9190.56 153.411   5
   7   1  -1 9129.95 155.005   3
   7   1  -1 9200.10 151.263   5
  -7   1   1 9188.10 152.536   2
  -7   1   1 9142.31 153.967   3
   1  -1   1 2624.88 46.3856   1
  -1  -1  -1 2720.62 45.5241   6
  -1  -1  -1 2712.28 45.4989   4
  -1  -1  -1 2703.14 46.1085   1
   1  -1   1 2739.89 46.3665   2
  -1  -1  -1 2652.92 45.4371   6
  -1  -1  -1 2749.69 45.5695   6
   1   1   1 2636.70 46.3021   4
  -1   1  -1 2717.70 46.5955   1
  -1   1  -1 2693.90 44.5197   4
  -1   1  -1 2730.19 46.3219   2
   1   1   1 2755.33 45.4240   6
   1   1   1 2659.19 46.0075   1
  -3  -1  -1 2313.85 40.0222   4
   3  -1   1 2301.02 41.1978   2
  -3  -1  -1 2305.38 39.1826   6
   3  -1   1 2256.26 40.7951   1
  -3  -1  -1 2291.51 39.8975   6
  -3  -1  -1 2353.89 39.9414   1
   3   1   1 2271.34 39.9602   4
  -3   1  -1 2284.59 41.3567   2
  -3   1  -1 2257.43 40.4717   5
  -3   1  -1 2313.15 40.9029   1
   3   1   1 2319.64 37.7801   6
   3   1   1 2299.96 39.8377   1
   3   1   1 2377.18 38.2545   6
  -5  -1  -1 2160.92 37.1280   5
   5  -1   1 2103.54 39.6303   5
   5  -1   1 2161.39 40.8534   2
  -5  -1  -1 2227.99 37.4204   6
   5  -1   1 2240.66 39.9382   1
  -5  -1  -1 2188.22 37.3180   6
  -5  -1  -1 2197.44 39.4835   4
  -5  -1  -1 2180.11 38.3115   1
  -5   1  -1 2236.81 40.9971   2
  -5   1  -1 2248.69 40.1998   5
  -5   1  -1 2205.44 39.9382   1
   5   1   1 2221.62 38.4324   1
  -7  -1  -1 1830.76 31.6321   1
  -7  -1  -1 1795.28 30.2054   6
  -7  -1  -1 1703.18 30.5976   5
  -7  -1  -1 1769.09 30.1066   6
  -7  -1  -1 1735.67 33.3992   4
   7  -1   1 1742.50 35.2475   2
   7  -1   1 1696.35 33.3485   5
   7   1   1 1750.70 31.3509   1
  -7   1  -1 1756.55 33.4674   5
  -7   1  -1 1757.46 35.0556   2
  -7   1  -1 1690.56 32.9847   1
  -9  -1  -1 155.180 8.91300   2
  -9  -1  -1 156.692 10.2631   3
   9  -1   1 148.305 8.09040   5
  -9  -1  -1 158.525 6.00419   1
  -9  -1  -1 141.493 8.25393   4
  -9  -1  -1 150.078 5.88099   5
  -9  -1  -1 156.322 5.02416   6
   9   1   1 147.692 5.75655   1
  -9   1  -1 145.999 7.70352   5
  -9   1  -1 150.763 7.37195   1
  -9   1  -1 161.497 9.12586   2
  -9   1  -1 149.933 9.35783   3
 -11  -1  -1 38.9513 5.95133   4
 -11  -1  -1 64.9645 8.18390   3
 -11  -1  -1 54.7022 3.85273   6
 -11  -1  -1 49.6511 4.02296   6
 -11  -1  -1 62.7839 4.47674   1
 -11  -1  -1 54.9242 7.09783   2
 -11   1  -1 43.1163 6.78254   3
 -11   1  -1 50.0025 6.06129   5
 -11   1  -1 47.2711 6.58459   2
 -11   1  -1 51.1014 5.19801   1
 -13  -1  -1 12.3555 3.33976   6
 -13  -1  -1 8.40602 4.98831   4
 -13  -1  -1 16.9717 3.86563   5
 -13  -1  -1 15.1498 2.74211   1
 -13  -1  -1 7.43933 6.28189   3
 -13   1  -1 8.50730 6.37351   3
 -13   1  -1 5.47471 3.51990   1
 -13   1  -1 9.78724 4.69267   5
 -15  -1  -1 17.8891 4.09909   5
 -15  -1  -1 11.6625 11.1466   3
 -15  -1  -1 8.04092 6.22529   4
 -15  -1  -1 16.4722 4.01541   6
 -15  -1  -1 23.8837 4.33935   6
 -15   1  -1 17.4398 4.07672   1
 -15   1  -1 30.5310 6.55907   5
 -15   1  -1 15.8179 6.16253   3
 -17  -1  -1 5.51613 6.97071   3
 -17  -1  -1 10.0105 4.18752   6
 -17   1  -1 -2.5237 3.02437   1
 -17   1  -1 -6.3315 6.18794   3
 -17   1  -1 0.38240 4.61651   5
 -19  -1  -1 4.47290 7.56683   3
 -19  -1  -1 6.49837 4.66157   6
 -19   1  -1 1.90634 2.95022   1
 -19   1  -1 2.14853 7.51010   3
  22  -2  -1 39.1296 7.23705   5
 -22  -2   1 21.6212 10.3959   3
 -22   2   1 18.5444 8.52421   3
 -22   2   1 17.9408 6.07815   4
 -20  -2   1 7.43722 7.09538   3
  20  -2  -1 7.23129 5.93921   5
 -20  -2   1 12.4831 4.66147   6
 -20   2   1 -0.4527 5.01941   4
 -20   2   1 0.06934 3.13411   1
 -20   2   1 2.66033 6.65755   3
  18  -2  -1 23.2927 6.68152   5
 -18  -2   1 14.0369 6.79553   3
 -18  -2   1 16.0032 5.13314   6
 -18   2   1 20.4363 4.20247   1
 -18   2   1 11.7008 6.58910   3
 -16  -2   1 133.434 12.8326   3
 -16  -2   1 131.944 8.52576   6
  16  -2  -1 125.725 10.2766   5
  16   2  -1 135.182 6.42397   5
 -16   2   1 151.322 10.0968   5
 -16   2   1 139.534 11.8979   3
 -16   2   1 139.766 8.12014   1
  14  -2  -1 39.7674 6.98793   5
 -14  -2   1 42.9624 5.63802   6
 -14  -2   1 43.6946 7.47992   3
 -14   2   1 54.4389 6.99453   5
  14   2  -1 48.0630 4.31551   5
 -14   2   1 58.6334 7.95590   3
 -14   2   1 48.7435 6.45467   2
 -14   2   1 46.6230 5.25355   1
 -12  -2   1 73.8810 8.43014   3
 -12  -2   1 60.3191 6.04298   6
 -12  -2   1 59.2008 5.47542   6
 -12   2   1 62.2764 6.87415   3
 -12   2   1 58.5771 6.45755   2
 -12   2   1 74.4916 7.01554   5
  12   2  -1 59.8498 4.35124   5
 -12   2   1 63.2327 5.76446   1
 -10  -2   1 80.3895 6.24992   6
  10  -2  -1 71.0271 6.61320   3
  10  -2  -1 77.2970 7.46647   5
 -10  -2   1 69.4384 7.51945   3
 -10  -2   1 79.4816 5.74909   6
  10   2  -1 86.1420 7.57763   3
 -10   2   1 80.4920 5.94212   2
 -10   2   1 80.8184 6.88958   5
  10   2  -1 78.2126 4.38839   5
 -10   2   1 78.9227 7.16379   3
   8  -2  -1 190.148 8.16702   3
   8  -2  -1 196.528 8.95524   5
  -8  -2   1 191.446 7.67224   6
  -8  -2   1 183.718 9.30828   4
   8  -2  -1 172.640 7.66136   2
  -8  -2   1 183.519 9.67002   3
  -8  -2   1 181.438 7.43711   6
   8   2  -1 181.067 9.04263   3
  -8   2   1 196.611 8.55091   5
   8   2  -1 188.208 5.53932   5
  -8   2   1 185.922 7.91935   3
  -8   2   1 197.115 7.64659   2
  -8   2   1 185.121 8.87343   4
   6  -2  -1 1610.00 29.7839   3
   6  -2  -1 1536.42 29.2490   2
  -6  -2   1 1635.11 31.9651   3
  -6  -2   1 1634.42 30.1596   6
  -6  -2   1 1588.91 29.9441   6
  -6  -2   1 1625.06 31.7324   4
   6  -2  -1 1564.66 31.2241   5
   6   2  -1 1643.96 31.9730   3
  -6   2   1 1574.54 29.7890   3
  -6   2   1 1600.00 31.2395   4
   6   2  -1 1624.76 29.0736   6
  -6   2   1 1547.29 29.1475   2
  -6   2   1 1623.72 31.2191   5
  -4  -2   1 1334.44 25.4440   6
  -4  -2   1 1356.41 25.5270   6
  -4  -2   1 1324.83 26.0236   3
   4  -2  -1 1361.17 26.3796   5
  -4  -2   1 1374.13 26.7878   4
   4  -2  -1 1328.83 24.1853   2
   4  -2  -1 1351.01 24.2001   3
  -4   2   1 1334.07 26.2554   5
  -4   2   1 1350.98 26.2668   4
  -4   2   1 1334.17 24.1646   2
   4   2  -1 1322.90 25.0738   6
   4   2  -1 1361.60 26.0377   3
   4   2  -1 1322.07 25.1243   6
  -4   2   1 1335.95 24.1983   3
   4   2  -1 1345.84 24.6683   1
   2  -2  -1 3803.49 65.5758   4
   2  -2  -1 3809.66 63.1473   6
  -2  -2   1 3861.67 65.4808   4
   2  -2  -1 3826.70 63.6764   3
   2  -2  -1 3889.24 65.5087   5
  -2  -2   1 3728.63 64.3996   3
  -2  -2   1 3779.66 64.6550   6
   2  -2  -1 3801.51 63.1046   6
  -2  -2   1 3751.21 64.5921   6
   2   2  -1 3933.54 64.9194   6
  -2   2   1 4006.98 65.6340   5
   2   2  -1 3837.81 65.5075   4
  -2   2   1 3893.71 63.8406   3
  -2   2   1 3849.28 65.7155   4
   2   2  -1 3844.59 64.5227   3
   2   2  -1 3766.34 65.3538   1
  -2   2   1 3912.19 63.9077   6
   2   2  -1 3920.73 65.0963   6
  -2   2   1 3975.41 64.0421   6
   0  -2  -1 4508.82 75.5500   4
   0  -2   1 4442.82 72.6186   6
   0  -2   1 4470.79 73.5980   3
   0  -2   1 4451.02 75.6112   2
   0  -2   1 4469.75 74.7784   4
   0  -2  -1 4549.35 74.6392   5
   0  -2  -1 4421.09 74.7874   6
   0  -2  -1 4386.08 74.7984   6
   0   2  -1 4413.33 75.5498   2
   0   2  -1 4596.67 75.5983   5
   0   2  -1 4525.10 74.9276   4
   0   2   1 4584.97 75.0558   6
   0   2   1 4443.50 74.9495   6
   0   2  -1 4366.75 73.5658   6
   0   2   1 4436.97 74.4560   5
   0   2   1 4534.14 75.6981   4
   0   2  -1 4496.67 73.5796   3
   0   2  -1 4556.72 73.7240   6
   2  -2   1 267.315 7.49592   4
  -2  -2  -1 270.132 6.40348   5
  -2  -2  -1 267.269 8.22665   6
   2  -2   1 260.956 8.93960   5
  -2  -2  -1 271.146 8.35551   6
   2  -2   1 266.235 8.45151   2
  -2  -2  -1 280.480 8.64030   4
   2   2   1 277.108 8.18580   6
   2   2   1 260.900 8.19154   1
   2   2   1 266.541 8.07062   6
   2   2   1 259.152 7.96212   6
  -2   2  -1 253.891 12.2712   5
  -2   2  -1 270.864 7.47875   4
  -2   2  -1 272.250 9.48446   1
   2   2   1 264.809 8.53020   4
  -4  -2  -1 3318.03 57.7949   4
  -4  -2  -1 3393.45 57.2040   6
   4  -2   1 3356.77 58.5490   5
   4  -2   1 3288.23 58.5392   2
  -4  -2  -1 3281.84 53.7788   5
  -4  -2  -1 3333.25 57.0400   6
   4   2   1 3190.19 57.6725   4
  -4   2  -1 3233.19 58.4746   1
   4   2   1 3313.14 56.7436   1
   4   2   1 3304.30 55.8782   6
  -4   2  -1 3314.53 58.3641   2
  -4   2  -1 3292.00 56.5222   4
   4   2   1 3298.07 55.8139   6
  -4   2  -1 3300.60 58.2235   5
  -6  -2  -1 73.5879 6.50657   4
   6  -2   1 70.6832 6.65761   5
  -6  -2  -1 65.2217 5.53288   6
  -6  -2  -1 63.3680 5.19095   6
   6  -2   1 68.4189 6.67009   2
  -6   2  -1 66.2415 5.95963   5
  -6   2  -1 71.5887 6.34433   2
   6   2   1 75.5070 4.76404   1
  -6   2  -1 75.7960 6.26432   1
  -6   2  -1 69.6023 5.36012   4
  -8  -2  -1 2304.23 40.7464   6
   8  -2   1 2202.10 42.7977   5
  -8  -2  -1 2263.01 42.8714   4
  -8  -2  -1 2272.54 45.3316   3
   8  -2   1 2169.98 43.7401   2
  -8  -2  -1 2212.82 40.3813   6
  -8   2  -1 2249.18 43.1350   3
  -8   2  -1 2222.91 42.6249   1
  -8   2  -1 2172.58 42.3823   5
  -8   2  -1 2249.38 43.7676   2
  -8   2  -1 2158.30 41.3550   4
   8   2   1 2233.51 39.2308   1
 -10  -2  -1 56.4298 5.75735   6
 -10  -2  -1 52.2417 3.12247   5
 -10  -2  -1 64.6459 6.81758   4
  10  -2   1 64.8534 7.57201   2
  10  -2   1 61.5100 6.88516   5
 -10  -2  -1 55.7719 7.41406   3
 -10  -2  -1 49.6235 5.09592   6
  10   2   1 57.4219 4.08574   1
 -10   2  -1 51.7112 5.76044   1
 -10   2  -1 57.7643 6.77985   2
 -10   2  -1 66.5475 7.17790   5
 -10   2  -1 66.4241 6.43864   4
 -12  -2  -1 52.7393 8.26731   3
  12  -2   1 37.2546 6.80199   5
 -12  -2  -1 42.3495 5.35314   6
 -12  -2  -1 40.2216 6.57018   4
 -12   2  -1 33.0986 5.69626   4
 -12   2  -1 33.8326 5.39822   1
 -12   2  -1 38.3720 7.12276   3
 -14  -2  -1 115.209 8.22200   6
 -14  -2  -1 91.6826 10.0912   4
 -14  -2  -1 125.263 11.6356   3
 -14   2  -1 110.136 8.52349   1
 -14   2  -1 122.377 11.0225   3
 -14   2  -1 112.470 8.73399   4
 -14   2  -1 122.305 8.90739   5
 -16  -2  -1 332.072 12.5127   6
 -16   2  -1 318.875 12.6743   1
 -16   2  -1 333.796 16.4562   3
 -16   2  -1 343.461 13.9564   4
 -18  -2  -1 168.623 15.1664   3
 -18  -2  -1 166.803 9.62857   6
 -18   2  -1 181.379 14.0863   3
 -18   2  -1 155.991 9.14793   1
 -18   2  -1 169.783 11.2109   4
 -20   2  -1 31.9247 4.87692   1
 -20   2  -1 36.7593 9.50412   3
 -21  -3   1 3.17872 8.18977   3
  21  -3  -1 12.3582 6.88742   5
 -21   3   1 8.82779 4.89752   1
 -21   3   1 10.4549 7.23656   3
 -21   3   1 18.1423 6.02235   4
  19  -3  -1 34.5032 7.84550   5
 -19  -3   1 25.3739 6.00290   6
 -19  -3   1 13.6913 7.77153   3
 -19   3   1 26.7786 8.77290   3
 -19   3   1 5.32041 9.17866   4
  17  -3  -1 247.906 14.1157   5
 -17  -3   1 249.589 11.7682   6
 -17   3   1 250.429 13.2735   4
 -17   3   1 238.684 12.9733   1
 -17   3   1 262.119 13.9818   3
  15  -3  -1 344.982 15.0731   5
 -15  -3   1 320.288 12.8905   6
 -15  -3   1 336.032 17.1399   3
 -15   3   1 338.052 14.9435   3
 -15   3   1 331.117 14.8327   4
 -15   3   1 340.593 13.5694   2
 -15   3   1 345.455 13.2097   1
  13  -3  -1 279.802 12.9912   5
 -13  -3   1 286.347 11.5267   6
 -13  -3   1 289.106 14.5731   3
 -13   3   1 280.578 11.4758   1
 -13   3   1 295.001 12.8653   4
 -13   3   1 271.529 11.4656   2
 -13   3   1 282.302 12.2507   3
 -13   3   1 266.628 11.7882   5
  11  -3  -1 1112.57 25.4944   2
 -11  -3   1 1154.48 28.0420   4
 -11  -3   1 1099.77 24.9345   6
  11  -3  -1 1140.91 27.1744   5
 -11  -3   1 1145.71 28.7968   3
 -11   3   1 1182.04 27.3764   4
 -11   3   1 1188.22 25.8691   2
 -11   3   1 1144.25 25.5716   3
  -9  -3   1 267.218 10.0612   6
   9  -3  -1 259.032 11.7465   5
  -9  -3   1 264.800 10.0915   6
   9  -3  -1 263.371 9.86053   2
   9  -3  -1 261.420 9.62744   3
  -9  -3   1 277.774 14.1832   3
  -9  -3   1 262.008 11.7975   4
  -9   3   1 265.711 9.53004   2
   9   3  -1 272.652 8.14731   6
  -9   3   1 272.241 11.1299   4
  -9   3   1 283.753 9.84760   3
   9   3  -1 262.454 8.14281   6
   9   3  -1 264.742 11.3843   3
  -9   3   1 267.549 10.7709   5
   9   3  -1 269.021 7.97939   1
  -7  -3   1 5450.95 95.7926   4
   7  -3  -1 5642.26 92.9653   3
  -7  -3   1 5507.68 95.7971   3
  -7  -3   1 5456.77 93.9805   6
   7  -3  -1 5375.03 93.1212   2
  -7  -3   1 5429.00 93.8527   6
   7  -3  -1 5396.47 95.2907   5
   7   3  -1 5624.25 92.9907   6
   7   3  -1 5562.17 91.7328   1
  -7   3   1 5446.58 92.5504   3
  -7   3   1 5586.58 93.1755   2
   7   3  -1 5487.81 95.5798   3
  -7   3   1 5343.75 95.0707   4
  -7   3   1 5574.42 95.6327   5
  -5  -3   1 3.18311 4.13313   4
  -5  -3   1 2.32186 3.49268   6
   5  -3  -1 5.06636 2.30743   3
   5  -3  -1 -1.4598 3.20491   4
   5  -3  -1 3.16981 3.90330   5
   5  -3  -1 3.65926 2.86774   2
  -5  -3   1 4.37685 3.67230   6
  -5  -3   1 -1.7950 3.51904   3
  -5   3   1 -1.1308 4.00999   5
  -5   3   1 0.47881 2.12320   3
   5   3  -1 0.87101 3.30908   6
   5   3  -1 6.40035 3.63036   3
  -5   3   1 -0.4021 3.71445   4
   5   3  -1 4.63637 4.18224   4
   5   3  -1 7.00258 3.47322   6
  -5   3   1 -1.1551 2.55655   2
  -3  -3   1 1311.82 25.0944   3
   3  -3  -1 1310.30 26.2564   5
   3  -3  -1 1243.93 24.5534   2
  -3  -3   1 1346.15 25.4677   6
  -3  -3   1 1299.11 26.4757   4
  -3  -3   1 1344.21 25.4807   6
   3  -3  -1 1313.20 26.4848   4
   3  -3  -1 1289.97 22.7873   3
  -3   3   1 1304.76 23.4314   6
   3   3  -1 1329.46 25.5250   6
  -3   3   1 1267.56 25.9832   5
   3   3  -1 1275.51 25.4067   6
  -3   3   1 1310.04 23.3188   6
   3   3  -1 1294.38 24.8197   3
   3   3  -1 1297.41 24.5521   5
  -3   3   1 1291.22 26.4133   4
  -3   3   1 1318.26 22.9645   3
   3   3  -1 1317.71 26.5913   4
   1  -3  -1 3725.79 62.8135   5
   1  -3  -1 3576.72 63.3331   4
   1  -3  -1 3562.84 61.1401   6
  -1  -3   1 3672.73 60.6720   3
  -1  -3   1 3600.04 63.0255   4
  -1  -3   1 3609.03 61.0431   6
  -1   3   1 3654.80 63.5944   4
   1   3  -1 3554.48 60.4601   3
   1   3  -1 3670.03 61.9428   6
  -1   3   1 3623.65 61.8563   6
   1   3  -1 3588.53 63.0231   4
  -1   3   1 3709.93 62.1208   6
   1   3  -1 3560.30 61.6940   6
  -1  -3  -1 291.550 9.93221   4
   1  -3   1 293.740 9.62997   5
   1  -3   1 306.104 9.81988   2
  -1  -3  -1 289.823 9.27219   6
  -1  -3  -1 294.057 8.18366   5
  -1  -3  -1 290.152 9.22918   6
  -1   3  -1 288.099 6.90764   6
  -1   3  -1 294.766 10.5316   1
  -1   3  -1 297.204 9.36332   4
  -1   3  -1 287.175 6.44943   3
  -1   3  -1 288.765 9.41180   2
  -1   3  -1 289.952 6.91017   6
   1   3   1 301.754 10.1284   4
   1   3   1 294.911 9.39406   6
   1   3   1 292.197 8.10015   5
  -1   3  -1 289.512 9.47140   5
   1   3   1 296.471 9.35267   6
   3  -3   1 188.185 8.41646   2
   3  -3   1 186.871 8.72113   5
  -3  -3  -1 189.668 5.48660   5
  -3  -3  -1 183.323 8.16429   6
  -3  -3  -1 189.009 8.38192   4
  -3  -3  -1 185.303 7.93036   6
   3   3   1 188.410 7.72628   6
  -3   3  -1 193.428 9.20813   1
   3   3   1 190.457 7.71698   6
  -3   3  -1 179.104 7.09471   4
   3   3   1 181.004 8.40034   4
  -3   3  -1 181.628 8.03058   2
  -3   3  -1 183.313 8.64437   5
   5  -3   1 3903.21 67.2678   4
  -5  -3  -1 3872.29 67.9013   6
  -5  -3  -1 3923.61 68.9932   4
   5  -3   1 3889.83 69.4517   5
   5  -3   1 3830.88 69.1618   2
  -5  -3  -1 3887.34 67.9723   6
  -5   3  -1 3798.73 69.7118   1
  -5   3  -1 4009.33 69.6747   5
   5   3   1 3788.71 68.8834   4
   5   3   1 3910.61 66.7169   6
  -5   3  -1 3889.98 68.9900   2
   5   3   1 3908.50 69.2851   1
  -5   3  -1 3777.91 67.3221   4
  -7  -3  -1 5206.17 90.8177   4
  -7  -3  -1 5159.95 89.2282   6
   7  -3   1 5031.14 91.0736   2
  -7  -3  -1 5211.97 94.2049   6
   7  -3   1 5182.43 91.2596   5
  -7   3  -1 5063.93 90.8917   2
   7   3   1 5258.96 86.0643   6
  -7   3  -1 5204.03 91.1179   5
   7   3   1 5333.76 86.0305   6
  -7   3  -1 5036.58 88.7251   3
   7   3   1 5219.72 87.7540   1
  -7   3  -1 5157.19 89.1579   4
  -7   3  -1 5177.25 91.2898   1
  -9  -3  -1 849.837 23.6926   3
   9  -3   1 868.174 22.3999   2
  -9  -3  -1 850.430 21.7722   4
  -9  -3  -1 821.310 19.6979   6
  -9  -3  -1 854.365 20.3323   6
   9  -3   1 835.713 21.8611   5
  -9   3  -1 861.797 20.3307   4
  -9   3  -1 844.387 21.8453   5
   9   3   1 826.858 17.7017   1
  -9   3  -1 847.892 21.4859   1
  -9   3  -1 857.066 20.7163   3
  11  -3   1 347.064 14.6077   2
 -11  -3  -1 335.372 14.9298   3
  11  -3   1 349.010 14.3238   5
 -11  -3  -1 349.785 13.8386   4
 -11  -3  -1 356.658 12.6483   6
 -11   3  -1 368.658 13.0013   4
  11   3   1 347.861 9.10271   1
 -11   3  -1 351.582 13.9827   2
 -11   3  -1 331.288 12.9136   5
 -11   3  -1 354.226 13.8850   3
 -11   3  -1 341.235 13.3524   1
 -13  -3  -1 83.2805 8.49026   6
 -13  -3  -1 62.1600 9.11452   3
  13  -3   1 97.0222 9.83842   5
 -13   3  -1 80.9838 8.09836   4
 -13   3  -1 81.9369 9.21576   3
 -13   3  -1 79.9263 8.13690   1
 -15  -3  -1 97.8966 8.72150   6
 -15  -3  -1 101.202 11.2843   3
 -15   3  -1 87.6139 8.85931   1
 -15   3  -1 92.0058 10.0059   3
 -15   3  -1 87.1311 8.88167   4
 -17  -3  -1 -0.3486 4.61791   6
 -17  -3  -1 1.63808 6.73811   3
 -17   3  -1 7.98526 4.76293   1
 -17   3  -1 4.83248 4.84811   4
 -19  -3  -1 5.56743 7.67789   3
 -19   3  -1 13.6652 7.28780   3
 -19   3  -1 15.6911 5.20619   4
 -19   3  -1 4.09578 4.77022   1
  20  -4  -1 68.8535 10.4338   5
 -20  -4   1 60.0069 10.9299   3
 -20  -4   1 49.6627 7.88410   6
 -20   4   1 47.3326 8.38351   4
 -20   4   1 55.5484 9.19724   3
 -18  -4   1 16.3417 6.20692   6
 -18  -4   1 0.11032 7.20300   3
 -18   4   1 22.6504 7.14474   4
 -18   4   1 14.0752 6.01079   3
 -18   4   1 12.7779 5.12532   1
 -16  -4   1 277.811 13.2517   6
  16  -4  -1 272.809 14.8854   5
 -16  -4   1 278.678 15.7783   3
 -16   4   1 289.183 13.9746   3
 -16   4   1 264.173 14.3747   4
 -16   4   1 268.668 13.2514   1
  14  -4  -1 47.5588 8.21903   5
 -14  -4   1 36.4908 8.58251   3
 -14  -4   1 32.8983 6.63262   6
 -14   4   1 48.6170 6.64352   2
 -14   4   1 44.2903 6.76056   3
 -14   4   1 32.9738 7.09318   4
 -14   4   1 46.5767 6.65554   1
  12  -4  -1 258.372 13.1313   5
  12  -4  -1 252.109 11.6320   2
 -12  -4   1 256.609 13.9513   3
 -12  -4   1 256.570 11.7336   6
 -12   4   1 253.703 10.7730   3
 -12   4   1 259.701 10.8697   2
 -12   4   1 239.251 12.0745   4
  10  -4  -1 1458.81 30.7259   2
 -10  -4   1 1455.37 33.6344   3
 -10  -4   1 1393.38 30.9464   6
 -10  -4   1 1424.88 31.2704   6
  10  -4  -1 1481.76 33.2483   5
 -10  -4   1 1482.87 33.5893   4
  10   4  -1 1468.48 27.3034   1
 -10   4   1 1453.40 32.7442   5
 -10   4   1 1502.46 32.7554   4
  10   4  -1 1434.99 29.8531   6
 -10   4   1 1431.52 30.3301   2
  10   4  -1 1431.45 28.2336   6
 -10   4   1 1425.09 29.3863   3
   8  -4  -1 124.925 9.70778   5
   8  -4  -1 133.030 7.52698   2
  -8  -4   1 132.776 9.29258   3
  -8  -4   1 135.988 8.46952   6
  -8  -4   1 146.392 9.76887   4
  -8  -4   1 131.897 8.63674   6
  -8   4   1 127.998 6.80481   2
   8   4  -1 127.547 7.74006   6
  -8   4   1 126.392 8.65992   4
   8   4  -1 127.125 6.45633   1
   8   4  -1 128.985 4.79200   5
  -8   4   1 126.141 8.94078   5
   8   4  -1 128.215 7.69398   6
  -8   4   1 128.388 6.30563   3
   6  -4  -1 696.621 18.2641   4
  -6  -4   1 687.646 18.8369   4
  -6  -4   1 679.531 17.6458   6
   6  -4  -1 682.254 16.5548   2
  -6  -4   1 676.733 17.8333   3
  -6  -4   1 697.404 17.4877   6
   6  -4  -1 673.188 13.9509   3
   6  -4  -1 714.659 18.9898   5
   6   4  -1 684.932 17.1136   6
  -6   4   1 676.732 18.0877   5
   6   4  -1 685.073 17.5915   3
  -6   4   1 678.324 16.2445   2
   6   4  -1 709.686 19.0201   4
  -6   4   1 695.263 18.5375   4
   6   4  -1 694.668 14.5429   5
  -6   4   1 676.758 14.0001   3
   6   4  -1 700.045 17.1369   6
  -4  -4   1 2893.35 54.0266   4
   4  -4  -1 2940.44 53.9711   5
  -4  -4   1 2908.47 52.5741   6
   4  -4  -1 2927.18 48.4882   3
   4  -4  -1 2862.03 51.9866   2
  -4  -4   1 2930.01 52.6542   6
  -4  -4   1 2944.77 52.4017   3
   4  -4  -1 2958.32 54.0874   4
  -4   4   1 2956.71 49.7147   6
   4   4  -1 2925.06 54.2113   4
  -4   4   1 2956.16 54.2165   4
  -4   4   1 2888.28 49.4906   6
   4   4  -1 2837.48 52.6589   6
   4   4  -1 2904.56 51.9925   3
  -4   4   1 2892.85 53.6546   5
   4   4  -1 2880.16 52.6339   6
  -2  -4   1 211.076 9.32107   4
  -2  -4   1 210.374 7.83381   6
  -2  -4   1 214.338 7.10726   3
  -2  -4   1 216.966 8.01068   6
   2  -4  -1 209.586 9.05338   5
   2  -4  -1 213.383 6.17165   6
   2  -4  -1 221.694 5.93618   3
   2  -4  -1 197.957 6.68911   6
   2  -4  -1 233.983 9.79529   4
  -2   4   1 225.297 9.76725   4
  -2   4   1 213.305 8.87868   5
   2   4  -1 221.811 9.70946   4
   2   4  -1 213.561 8.26045   6
  -2   4   1 217.802 7.79556   6
   2   4  -1 215.349 8.62409   6
   2   4  -1 211.472 8.05140   5
   2   4  -1 215.519 6.96017   3
  -2   4   1 215.878 7.61536   6
   0  -4  -1 11.7225 3.94499   5
   0  -4   1 12.3864 3.79768   4
   0  -4  -1 14.6155 3.68739   6
   0  -4   1 16.5708 2.41309   6
   0  -4  -1 13.8710 3.70977   6
   0  -4   1 13.0428 2.29464   6
   0  -4  -1 6.92249 3.66020   4
   0  -4   1 13.7128 2.52020   3
   0  -4   1 15.2491 3.94720   2
   0   4  -1 2.42223 3.81462   4
   0   4   1 15.2421 3.85970   6
   0   4  -1 19.9209 4.72564   5
   0   4   1 22.4491 3.94471   5
   0   4  -1 14.8342 3.53700   6
   0   4  -1 15.0407 2.09967   3
   0   4   1 8.53562 4.35736   4
   0   4   1 14.7247 4.01013   6
   0   4  -1 16.6087 3.37416   6
   2  -4   1 1439.07 29.5477   5
  -2  -4  -1 1408.97 28.8600   6
  -2  -4  -1 1361.82 26.3321   5
   2  -4   1 1406.88 28.2776   4
  -2  -4  -1 1385.72 29.2001   4
   2  -4   1 1395.73 29.0005   2
  -2  -4  -1 1371.99 28.1458   6
  -2   4  -1 1432.85 24.8301   6
  -2   4  -1 1392.54 24.7157   6
   2   4   1 1423.95 26.4461   5
  -2   4  -1 1414.53 28.5494   4
  -2   4  -1 1394.81 23.6088   3
   2   4   1 1385.06 28.1907   6
   2   4   1 1377.65 28.3169   6
   2   4   1 1360.23 29.2995   4
  -2   4  -1 1355.90 28.8623   5
   4  -4   1 36.8305 4.87291   4
   4  -4   1 48.0845 6.72919   5
  -4  -4  -1 33.0273 3.66283   5
  -4  -4  -1 26.7904 5.26036   4
  -4  -4  -1 35.8695 5.45876   6
   4  -4   1 28.7531 5.38535   2
  -4  -4  -1 22.9921 5.12605   6
  -4   4  -1 27.6851 5.38290   5
  -4   4  -1 21.4223 4.36525   4
   4   4   1 28.2456 5.25681   4
  -4   4  -1 27.1764 5.10259   2
   4   4   1 34.0625 3.27455   5
  -4   4  -1 36.2061 5.47063   1
   4   4   1 37.6683 5.17449   6
   4   4   1 33.6233 4.99585   6
  -6  -4  -1 199.881 9.66128   6
  -6  -4  -1 215.492 10.3175   4
   6  -4   1 203.615 8.92097   4
  -6  -4  -1 189.832 9.86999   6
  -6  -4  -1 200.372 10.4303   3
   6  -4   1 199.642 10.0347   2
   6  -4   1 200.003 10.2147   5
  -6   4  -1 202.128 9.12277   4
  -6   4  -1 199.572 9.77725   5
  -6   4  -1 205.252 9.75944   2
   6   4   1 203.629 10.4661   4
   6   4   1 195.357 10.4262   6
   6   4   1 202.012 8.70379   1
  -6   4  -1 204.408 7.30513   3
   6   4   1 205.903 10.9861   6
  -6   4  -1 213.228 10.7538   1
   6   4   1 206.346 8.66471   6
  -8  -4  -1 456.897 16.3581   3
   8  -4   1 432.509 15.5784   5
   8  -4   1 431.202 14.9083   2
  -8  -4  -1 423.990 13.9628   6
  -8  -4  -1 411.997 14.1525   6
  -8  -4  -1 417.492 16.8799   4
  -8   4  -1 445.651 15.8530   1
  -8   4  -1 424.436 14.7318   5
   8   4   1 424.815 11.4112   6
   8   4   1 425.699 11.5175   6
  -8   4  -1 422.156 12.3237   3
  -8   4  -1 427.490 13.5897   4
   8   4   1 418.563 12.1404   1
  10  -4   1 267.301 12.7721   2
 -10  -4  -1 250.047 12.0166   6
 -10  -4  -1 285.014 13.2741   4
  10  -4   1 283.225 13.4242   5
 -10  -4  -1 282.378 14.1048   3
 -10   4  -1 283.069 11.8019   4
  10   4   1 253.128 10.2298   1
 -10   4  -1 269.145 12.8345   1
 -10   4  -1 254.414 11.9429   2
 -10   4  -1 254.632 11.9603   5
 -10   4  -1 268.019 10.9146   3
 -12  -4  -1 622.448 19.1793   6
  12  -4   1 625.145 20.5840   5
  12  -4   1 629.091 20.7423   2
 -12  -4  -1 594.918 22.1396   3
 -12   4  -1 648.277 19.0550   3
 -12   4  -1 647.442 19.0094   4
  12   4   1 604.826 13.9325   1
 -12   4  -1 618.907 19.8316   1
 -14  -4  -1 11.4879 7.37399   3
  14  -4   1 6.71786 6.84807   5
 -14  -4  -1 6.75025 5.80852   6
  14  -4   1 19.5064 7.07627   2
 -14   4  -1 18.6674 5.74548   1
 -14   4  -1 16.7620 5.50965   4
 -14   4  -1 14.3910 5.36448   3
 -16  -4  -1 -2.0163 6.10728   3
 -16  -4  -1 -1.2029 5.35115   6
 -16   4  -1 11.6615 5.74384   3
 -16   4  -1 6.45328 5.19569   1
 -16   4  -1 0.63152 4.48414   4
 -18  -4  -1 4.35209 5.69655   6
 -18  -4  -1 8.92650 7.53513   3
 -18   4  -1 -4.0196 4.28536   4
 -18   4  -1 0.88531 5.88965   3
 -18   4  -1 -6.9022 4.35304   1
  21  -5  -1 -1.9908 7.36753   5
 -19  -5   1 33.9074 8.88733   3
 -19  -5   1 33.6955 8.05615   6
  19  -5  -1 31.2369 8.33204   5
 -19   5   1 26.2069 5.78320   1
 -19   5   1 31.9481 6.92597   3
 -19   5   1 15.5767 6.34185   4
 -17  -5   1 73.9408 11.4306   3
 -17  -5   1 73.7284 9.35073   6
  17  -5  -1 57.6646 9.20337   5
 -17   5   1 71.3969 8.37427   3
 -17   5   1 82.8274 9.34705   1
 -17   5   1 67.0309 10.4121   4
 -15  -5   1 685.633 21.4334   6
  15  -5  -1 696.172 22.9533   5
  15  -5  -1 678.541 21.1068   2
 -15   5   1 686.435 21.9298   1
 -15   5   1 662.595 22.2078   4
 -15   5   1 678.491 20.0707   3
  13  -5  -1 485.357 18.8960   5
  13  -5  -1 498.281 16.8569   2
 -13  -5   1 499.455 17.6409   6
 -13   5   1 493.596 15.1380   3
  13   5  -1 498.085 12.5826   6
  13   5  -1 483.112 11.4429   1
  13   5  -1 487.904 11.3963   1
 -13   5   1 473.744 17.7874   4
 -13   5   1 485.306 16.1556   2
  13   5  -1 501.353 11.1311   6
  11  -5  -1 157.894 9.72969   2
 -11  -5   1 152.779 11.2098   6
 -11  -5   1 153.352 11.7737   3
 -11  -5   1 148.031 10.8006   6
  11  -5  -1 163.129 11.9325   5
  11   5  -1 165.585 7.70267   1
  11   5  -1 153.154 8.19189   6
 -11   5   1 144.880 8.86003   2
 -11   5   1 144.003 10.5176   4
 -11   5   1 158.273 8.00355   3
  -9  -5   1 54.4543 7.10043   6
  -9  -5   1 37.6112 6.75684   6
  -9  -5   1 42.2536 7.11535   4
   9  -5  -1 42.9306 5.88133   2
   9  -5  -1 49.6519 8.05687   5
  -9  -5   1 39.4641 6.68390   3
  -9   5   1 40.4412 5.46584   2
  -9   5   1 45.6873 6.86526   4
   9   5  -1 39.4377 3.68049   5
  -9   5   1 37.0409 7.12643   5
   9   5  -1 46.1543 6.02237   6
   9   5  -1 44.4611 5.90777   6
  -9   5   1 41.2998 4.27652   3
   9   5  -1 48.1419 5.71244   1
   7  -5  -1 363.230 13.7043   4
   7  -5  -1 355.904 11.9195   2
  -7  -5   1 352.215 13.0778   3
  -7  -5   1 363.637 13.1300   6
  -7  -5   1 374.205 13.3788   6
   7  -5  -1 368.760 14.0441   5
  -7  -5   1 350.689 13.6784   4
   7   5  -1 367.168 11.0602   5
   7   5  -1 390.350 13.0436   6
  -7   5   1 352.069 8.69761   3
  -7   5   1 361.607 13.8446   4
   7   5  -1 373.085 14.5958   4
   7   5  -1 368.908 12.6000   6
  -7   5   1 348.811 13.2294   5
   5  -5  -1 4929.62 88.0235   4
  -5  -5   1 4998.04 86.7052   6
   5  -5  -1 4777.83 85.7383   2
   5  -5  -1 4776.11 80.4087   3
  -5  -5   1 4845.00 88.0181   4
  -5  -5   1 4918.50 86.1785   3
  -5  -5   1 5023.34 86.6136   6
   5  -5  -1 5152.42 89.1744   5
   5   5  -1 4917.73 84.1941   5
  -5   5   1 4968.31 82.7625   6
   5   5  -1 4970.54 86.6598   6
   5   5  -1 5110.85 89.0537   4
  -5   5   1 4911.43 82.6499   6
  -5   5   1 4884.08 87.9798   5
   5   5  -1 4860.87 86.4859   6
   3  -5  -1 845.450 15.4635   3
   3  -5  -1 849.893 21.6535   4
   3  -5  -1 840.560 20.1273   2
   3  -5  -1 888.411 21.5316   5
  -3  -5   1 861.092 18.8226   3
  -3  -5   1 872.442 19.8093   6
  -3  -5   1 893.638 19.9698   6
  -3  -5   1 868.012 21.8843   4
   3   5  -1 869.978 19.5955   5
   3   5  -1 912.082 22.5327   4
  -3   5   1 851.983 21.7514   4
  -3   5   1 879.741 19.1540   6
   3   5  -1 871.759 20.4958   6
  -3   5   1 862.858 18.7411   6
   3   5  -1 829.446 20.3671   6
  -3   5   1 851.839 21.1014   5
   1  -5  -1 609.328 14.0933   6
  -1  -5   1 614.168 13.9095   6
   1  -5  -1 613.131 16.4490   5
   1  -5  -1 617.684 14.2420   6
   1  -5  -1 641.524 17.6920   4
  -1  -5   1 614.460 12.9761   3
  -1  -5   1 610.743 16.8706   4
  -1  -5   1 602.993 13.8797   6
   1   5  -1 606.453 15.7286   6
   1   5  -1 624.855 16.2416   5
   1   5  -1 609.524 17.0700   4
  -1   5   1 628.338 17.8370   4
  -1   5   1 617.205 16.1136   5
  -1   5   1 628.176 16.0163   6
  -1   5   1 604.142 15.5485   6
   1   5  -1 621.301 15.4916   6
   1  -5   1 1070.21 24.1306   4
   1  -5   1 1076.89 24.5954   2
  -1  -5  -1 1047.35 22.8249   6
   1  -5   1 1013.50 23.8880   5
  -1  -5  -1 1060.42 24.7716   4
  -1  -5  -1 1036.20 22.6848   6
  -1  -5  -1 992.789 22.2814   5
   1   5   1 1008.35 23.3482   6
  -1   5  -1 1029.46 21.4505   6
   1   5   1 1034.15 22.2233   5
  -1   5  -1 1056.30 24.2744   5
  -1   5  -1 1059.05 21.5827   6
   1   5   1 1033.03 23.4784   6
   1   5   1 1037.38 24.7558   4
  -1   5  -1 1055.45 24.3087   4
  -3  -5  -1 119.147 6.47133   5
  -3  -5  -1 122.789 8.96076   4
   3  -5   1 122.793 7.86223   2
   3  -5   1 129.404 8.10615   4
  -3  -5  -1 110.192 8.23910   6
  -3  -5  -1 119.789 8.42737   6
   3  -5   1 121.012 8.53171   5
  -3   5  -1 123.056 5.18867   6
  -3   5  -1 146.373 8.59237   4
   3   5   1 142.243 13.4976   4
  -3   5  -1 114.314 8.19205   5
  -3   5  -1 119.971 5.03052   6
   3   5   1 125.742 6.19011   5
   3   5   1 120.313 8.36112   6
   3   5   1 124.018 8.56262   6
   5  -5   1 543.981 15.8040   4
  -5  -5  -1 557.470 16.6745   6
  -5  -5  -1 607.179 17.1831   6
   5  -5   1 578.692 17.3722   2
  -5  -5  -1 549.620 16.6059   3
   5  -5   1 582.503 17.6902   5
  -5  -5  -1 547.520 12.4018   5
  -5   5  -1 603.617 16.6115   4
  -5   5  -1 570.440 17.2551   5
   5   5   1 583.312 16.1984   6
   5   5   1 557.879 17.3488   4
  -5   5  -1 587.680 17.0185   2
  -5   5  -1 591.341 18.5951   1
   5   5   1 571.894 16.1625   6
   5   5   1 574.780 12.5929   5
  -5   5  -1 562.966 11.9261   3
  -7  -5  -1 688.575 19.7317   6
  -7  -5  -1 715.789 23.5669   6
  -7  -5  -1 688.615 20.3379   4
   7  -5   1 679.811 18.6311   4
   7  -5   1 710.357 21.1102   5
   7  -5   1 697.649 20.1767   2
  -7  -5  -1 746.248 20.8910   3
   7   5   1 722.614 18.4080   6
   7   5   1 708.580 18.0732   6
   7   5   1 719.431 20.5813   4
  -7   5  -1 696.961 19.0517   4
  -7   5  -1 697.527 20.9888   5
  -7   5  -1 678.529 19.3996   2
   7   5   1 697.302 18.2435   1
   7   5   1 720.500 18.3362   6
  -7   5  -1 722.219 21.5275   1
  -7   5  -1 700.934 15.5865   3
  -9  -5  -1 155.389 11.4692   6
  -9  -5  -1 167.860 12.8291   4
   9  -5   1 164.711 11.6779   5
  -9  -5  -1 172.594 11.8420   3
  -9  -5  -1 162.048 10.5507   6
   9  -5   1 159.759 10.8735   2
  -9   5  -1 179.944 8.39688   3
   9   5   1 169.576 8.66028   1
  -9   5  -1 164.065 9.56983   4
   9   5   1 166.758 8.24492   6
  -9   5  -1 162.605 10.7638   1
  -9   5  -1 170.722 10.1396   2
   9   5   1 170.402 8.74883   6
 -11  -5  -1 112.762 10.6536   6
 -11  -5  -1 108.887 10.5133   3
  11  -5   1 106.823 10.2488   2
  11  -5   1 107.400 11.6762   5
  11   5   1 85.9249 6.89182   1
 -11   5  -1 95.0120 8.98051   4
 -11   5  -1 100.915 10.1076   1
 -11   5  -1 103.045 7.80228   3
  13  -5   1 96.1257 11.2956   5
 -13  -5  -1 71.3200 12.2458   3
 -13  -5  -1 80.2602 9.53617   6
  13  -5   1 75.6316 9.07734   2
 -13   5  -1 78.7550 8.35394   3
 -13   5  -1 73.4430 7.99895   4
 -13   5  -1 59.4478 7.90504   1
 -15  -5  -1 107.607 10.7224   6
  15  -5   1 112.203 13.2605   2
 -15  -5  -1 111.444 11.9375   3
 -15   5  -1 105.414 10.5501   1
 -15   5  -1 127.807 9.96818   4
 -15   5  -1 104.128 9.59942   3
 -17  -5  -1 103.304 13.1978   3
 -17  -5  -1 99.8300 11.2573   6
 -17   5  -1 116.651 10.4475   1
 -17   5  -1 76.0836 8.80072   4
 -17   5  -1 95.7576 9.58673   3
 -19  -5  -1 1.75945 8.02891   3
 -19   5  -1 1.89070 5.57210   3
 -19   5  -1 -8.3856 4.61657   4
 -19   5  -1 4.26606 5.36603   1
 -20  -6   1 0.97545 6.35039   6
 -20  -6   1 -0.7142 8.20700   3
  20  -6  -1 20.1912 8.37076   5
 -20   6   1 3.46223 5.17711   3
 -20   6   1 -2.1076 5.61748   4
 -18  -6   1 30.5223 7.66911   6
 -18  -6   1 33.8642 9.76674   3
  18  -6  -1 55.7126 10.2652   5
 -18   6   1 29.5073 7.35742   4
 -18   6   1 37.1671 7.16451   1
 -18   6   1 38.6962 6.28143   3
  16  -6  -1 9.35750 7.11426   5
 -16  -6   1 7.47825 6.58220   3
  16  -6  -1 8.52750 6.21875   2
 -16  -6   1 10.9630 7.24715   6
 -16   6   1 10.2267 4.90183   3
 -16   6   1 8.05619 5.32017   1
  14  -6  -1 -1.1383 6.61723   5
  14  -6  -1 -2.4966 5.23006   2
 -14  -6   1 -2.0227 7.83024   6
 -14   6   1 -4.2566 4.78801   1
 -14   6   1 -10.380 5.15351   4
  14   6  -1 -1.8402 3.27090   6
 -14   6   1 -3.8499 3.81366   3
  14   6  -1 3.68520 2.72200   1
  12  -6  -1 185.129 11.2942   2
 -12  -6   1 175.420 13.0570   3
  12  -6  -1 169.270 12.3894   5
 -12  -6   1 171.505 12.8980   6
  12   6  -1 170.312 12.8694   6
  12   6  -1 176.610 12.4146   6
  12   6  -1 186.014 9.63185   6
  12   6  -1 172.158 8.91037   1
 -12   6   1 173.531 8.29504   3
 -12   6   1 165.001 10.1973   2
 -12   6   1 169.855 12.1626   4
 -10  -6   1 1034.81 26.7971   6
  10  -6  -1 1062.98 25.8485   2
 -10  -6   1 1040.46 27.7262   3
 -10  -6   1 1026.78 27.1445   6
  10  -6  -1 1029.71 28.2347   5
 -10   6   1 1028.15 28.1790   2
  10   6  -1 1035.12 24.9423   6
  10   6  -1 1063.29 25.2565   6
  10   6  -1 1084.30 24.5729   1
  10   6  -1 1002.65 19.6910   5
 -10   6   1 1063.17 27.8174   4
 -10   6   1 1034.09 21.2541   3
   8  -6  -1 891.021 24.8995   5
  -8  -6   1 902.221 23.6758   6
   8  -6  -1 863.698 23.8181   4
  -8  -6   1 866.024 23.0386   6
   8  -6  -1 848.511 28.9720   2
  -8  -6   1 898.285 23.6010   3
  -8   6   1 909.332 24.7020   4
   8   6  -1 863.246 18.5862   5
   8   6  -1 879.222 22.7168   6
  -8   6   1 869.715 16.9416   3
   8   6  -1 872.633 24.7132   4
   6  -6  -1 1.41235 4.14218   2
   6  -6  -1 3.53055 4.35064   4
  -6  -6   1 3.21321 4.71430   4
  -6  -6   1 1.51874 4.19458   3
  -6  -6   1 2.48968 4.35313   6
  -6  -6   1 4.03742 4.74523   6
   6  -6  -1 -4.9658 4.79578   5
   6   6  -1 -1.2302 4.34904   6
   6   6  -1 4.46632 4.98619   6
  -6   6   1 0.08165 2.58626   6
  -6   6   1 8.30268 5.27744   4
   6   6  -1 5.45233 4.83100   4
   6   6  -1 2.59606 3.33195   5
  -6   6   1 -1.1889 4.34457   5
  -6   6   1 0.94360 3.02111   6
   4  -6  -1 186.419 9.37827   2
   4  -6  -1 186.359 10.4993   4
   4  -6  -1 191.968 10.7895   5
  -4  -6   1 209.068 9.85694   6
  -4  -6   1 195.203 9.35342   6
  -4  -6   1 184.405 8.50278   3
  -4  -6   1 205.757 11.1394   4
   4   6  -1 170.295 9.53336   6
   4   6  -1 190.595 8.74678   5
   4   6  -1 195.620 10.2540   6
  -4   6   1 184.634 7.83918   6
  -4   6   1 180.451 10.2836   5
  -4   6   1 189.360 10.6832   4
   4   6  -1 206.901 11.6459   4
  -4   6   1 195.199 8.51235   6
   2  -6  -1 139.807 5.26528   3
  -2  -6   1 134.917 6.09639   3
   2  -6  -1 144.404 8.18146   6
  -2  -6   1 142.890 7.47695   6
   2  -6  -1 132.446 5.21462   6
   2  -6  -1 162.733 14.9164   5
   2  -6  -1 142.236 9.49189   4
   2  -6  -1 136.713 4.75405   3
   2   6  -1 134.906 8.07518   5
   2   6  -1 161.709 10.2140   4
  -2   6   1 137.473 8.33438   6
  -2   6   1 145.643 10.2178   4
   2   6  -1 133.514 8.71486   6
  -2   6   1 132.078 8.13247   5
  -2   6   1 145.531 9.02306   6
   2   6  -1 143.647 8.60897   6
   0  -6   1 224.065 11.1106   2
   0  -6   1 208.958 10.6506   4
   0  -6   1 221.587 6.04756   6
   0  -6  -1 245.749 11.4345   4
   0  -6  -1 218.183 9.85219   5
   0  -6  -1 229.291 7.79428   3
   0  -6  -1 224.552 9.01705   6
   0   6  -1 227.616 10.6408   6
   0   6   1 215.520 10.1016   6
   0   6  -1 227.590 10.6975   5
   0   6   1 239.422 9.89341   5
   0   6  -1 230.936 9.85277   6
   0   6   1 230.193 11.4185   4
   0   6  -1 224.234 11.0841   4
   0   6   1 209.728 10.1361   6
  -2  -6  -1 193.611 8.47574   3
  -2  -6  -1 187.772 9.84289   6
  -2  -6  -1 187.448 10.3115   4
  -2  -6  -1 184.992 9.56388   6
  -2  -6  -1 198.096 8.83385   5
   2  -6   1 199.750 10.2463   4
   2  -6   1 209.528 10.6777   2
   2  -6   1 212.344 11.0848   5
  -2   6  -1 195.443 10.0344   5
  -2   6  -1 203.112 8.30708   6
   2   6   1 190.085 8.47156   5
  -2   6  -1 181.844 7.65651   6
  -2   6  -1 190.746 10.6182   4
   2   6   1 217.214 11.6750   4
   2   6   1 186.644 9.82663   6
   2   6   1 195.805 10.3799   6
   4  -6   1 297.851 11.9760   4
  -4  -6  -1 293.086 13.2418   4
  -4  -6  -1 276.532 9.46540   5
  -4  -6  -1 293.886 12.5086   6
   4  -6   1 294.697 13.0612   5
   4  -6   1 292.803 12.6373   2
  -4  -6  -1 290.678 12.4876   6
  -4  -6  -1 281.662 11.5721   3
   4   6   1 285.835 12.2014   6
   4   6   1 292.619 9.58796   5
  -4   6  -1 300.612 12.5972   4
  -4   6  -1 298.115 12.9059   5
  -4   6  -1 282.850 8.31324   6
   4   6   1 308.622 13.5444   4
   4   6   1 279.885 12.2538   6
  -4   6  -1 291.337 8.68802   6
  -6  -6  -1 1290.71 29.7341   6
  -6  -6  -1 1154.89 35.2970   4
  -6  -6  -1 1218.83 29.0478   3
  -6  -6  -1 1264.98 29.2833   6
   6  -6   1 1208.85 30.5860   5
   6  -6   1 1234.53 29.7070   2
  -6   6  -1 1353.00 29.9727   4
  -6   6  -1 1197.40 29.1790   2
  -6   6  -1 1241.18 31.9457   1
   6   6   1 1230.83 28.5235   6
   6   6   1 1253.16 30.9114   4
   6   6   1 1261.39 30.7180   6
   6   6   1 1188.19 23.8241   5
   8  -6   1 348.039 15.4262   5
  -8  -6  -1 370.267 15.7391   3
   8  -6   1 330.979 14.6119   2
  -8  -6  -1 331.557 14.3675   6
   8  -6   1 356.464 13.7580   4
  -8  -6  -1 379.408 19.8967   6
   8   6   1 356.102 13.3132   1
  -8   6  -1 353.485 14.3278   4
  -8   6  -1 352.843 9.82125   3
   8   6   1 346.626 15.6617   4
  -8   6  -1 343.199 16.0689   1
   8   6   1 370.172 13.3981   6
   8   6   1 353.329 13.4053   6
   8   6   1 354.985 13.3358   6
  10  -6   1 109.723 12.1522   5
 -10  -6  -1 109.670 11.5068   3
  10  -6   1 107.373 10.4836   2
  10   6   1 106.802 8.43135   6
 -10   6  -1 121.105 6.96039   3
 -10   6  -1 123.130 9.54211   4
  10   6   1 104.278 8.22247   6
  10   6   1 102.647 8.53188   1
 -10   6  -1 130.051 11.7732   1
  12  -6   1 11.8656 6.13958   2
 -12   6  -1 16.9224 5.74880   4
 -12   6  -1 9.43492 6.55019   1
  12   6   1 13.8233 4.17543   1
 -12   6  -1 17.4481 4.74338   3
  14  -6   1 128.562 12.8589   5
  14  -6   1 86.2120 11.5248   2
 -14  -6  -1 86.5985 11.1979   3
 -14   6  -1 91.6417 8.65451   3
 -14   6  -1 95.7132 9.58394   4
 -14   6  -1 88.6857 10.2188   1
  14   6   1 92.2216 5.99216   1
 -16  -6  -1 92.7416 12.4606   3
  16  -6   1 79.7629 10.6824   2
 -16  -6  -1 47.2115 14.6593   6
 -16   6  -1 69.4690 8.82050   4
 -16   6  -1 79.9794 8.47901   3
 -18  -6  -1 28.9144 8.06120   6
 -18  -6  -1 33.9822 9.25461   3
 -18   6  -1 35.7412 6.79355   3
 -18   6  -1 26.4756 6.74971   4
 -18   6  -1 18.4811 6.07898   1
 -19  -7   1 -2.6056 8.07481   3
  19  -7  -1 7.34138 8.23828   5
 -19  -7   1 14.6428 7.31705   6
 -19   7   1 -2.8536 5.26347   1
 -19   7   1 -1.9564 4.37968   3
 -19   7   1 4.59480 5.97918   4
 -17  -7   1 29.0582 8.90746   3
 -17  -7   1 48.8458 9.36307   6
  17  -7  -1 29.3744 8.81021   2
  17  -7  -1 31.5790 9.63878   5
 -17   7   1 35.0364 7.62630   4
 -17   7   1 38.7009 6.08529   3
 -17   7   1 32.8723 7.52800   1
  15  -7  -1 167.578 14.3314   5
  15  -7  -1 148.028 11.6640   2
 -15  -7   1 159.749 13.3722   6
 -15  -7   1 160.211 14.2216   3
  15   7  -1 147.922 7.49746   1
  15   7  -1 168.491 7.40801   6
  15   7  -1 174.420 8.78023   6
  15   7  -1 164.218 7.49064   1
 -15   7   1 156.781 8.95308   3
 -15   7   1 151.428 12.4840   4
  13  -7  -1 216.754 12.2647   2
  13  -7  -1 219.646 15.1285   5
 -13  -7   1 197.595 16.5501   3
 -13  -7   1 217.310 14.7665   6
  13   7  -1 211.689 11.2038   6
  13   7  -1 191.891 10.8642   6
 -13   7   1 196.847 8.49063   3
  13   7  -1 212.673 9.98096   1
  13   7  -1 198.682 10.4217   6
 -13   7   1 202.099 13.6113   4
  11  -7  -1 310.134 24.3068   5
  11  -7  -1 315.410 14.2593   2
 -11  -7   1 323.938 15.6113   3
 -11  -7   1 335.105 15.9707   6
  11   7  -1 340.310 13.8996   6
 -11   7   1 319.600 8.97715   3
 -11   7   1 321.198 15.8029   4
  11   7  -1 313.241 8.16323   5
  11   7  -1 335.793 13.3079   1
  -9  -7   1 100.831 11.0214   6
  -9  -7   1 112.546 10.3994   3
   9  -7  -1 104.154 10.5339   5
  -9  -7   1 123.560 10.3748   6
   9  -7  -1 101.697 9.53513   2
  -9   7   1 111.087 5.71581   6
   9   7  -1 115.849 10.2692   6
   9   7  -1 116.498 9.62743   1
   9   7  -1 121.893 6.53368   5
   9   7  -1 110.853 10.4521   6
  -9   7   1 108.129 10.8640   4
   9   7  -1 117.545 11.9670   4
  -7  -7   1 605.122 18.3802   3
  -7  -7   1 615.898 19.3044   6
   7  -7  -1 593.723 20.7163   5
   7  -7  -1 617.195 18.7181   2
  -7  -7   1 628.227 19.0578   6
   7   7  -1 607.436 20.6551   4
  -7   7   1 594.755 15.1336   6
   7   7  -1 605.285 19.2463   6
   7   7  -1 605.186 15.7850   5
   7   7  -1 631.560 19.3534   6
  -7   7   1 621.160 20.4399   4
  -5  -7   1 1196.89 26.8967   3
   5  -7  -1 1209.94 28.4809   2
   5  -7  -1 1181.26 30.0137   5
  -5  -7   1 1260.70 28.4340   6
  -5  -7   1 1213.50 28.7813   6
  -5   7   1 1248.89 31.1451   4
   5   7  -1 1199.71 26.6759   5
   5   7  -1 1255.89 31.5950   4
   5   7  -1 1249.34 29.3624   6
  -5   7   1 1199.75 26.1940   6
   5   7  -1 1159.28 28.5244   6
  -3  -7   1 482.208 18.5882   6
  -3  -7   1 511.512 13.5777   3
  -3  -7   1 493.528 14.9367   6
   3  -7  -1 521.930 17.0051   2
   3  -7  -1 536.281 17.6973   5
  -3   7   1 509.824 16.9550   5
   3   7  -1 539.243 18.3839   4
  -3   7   1 528.261 18.5633   4
   3   7  -1 503.918 15.4745   5
   3   7  -1 487.176 16.1625   6
   3   7  -1 502.276 16.7849   6
  -3   7   1 506.637 16.3832   6
   1  -7  -1 453.115 10.8939   3
   1  -7  -1 460.509 12.2780   6
   1  -7  -1 472.612 15.7764   5
  -1  -7   1 475.648 11.9719   6
   1  -7  -1 476.005 12.3132   6
  -1  -7   1 456.649 16.3492   4
  -1  -7   1 457.791 11.9025   6
  -1  -7   1 465.127 10.8941   3
   1   7  -1 478.412 15.4934   6
  -1   7   1 438.985 15.1370   6
  -1   7   1 450.601 17.3079   4
   1   7  -1 445.478 14.7044   6
   1   7  -1 451.639 17.1040   4
  -1   7   1 448.853 14.8282   6
   1   7  -1 453.155 15.5267   5
  -1   7   1 452.169 17.5559   5
  -1  -7  -1 84.2295 14.0352   5
  -1  -7  -1 66.2434 7.32431   6
   1  -7   1 78.9678 7.96740   2
  -1  -7  -1 71.9575 7.22974   6
   1  -7   1 80.4101 8.22117   5
  -1  -7  -1 88.9463 6.31578   3
   1  -7   1 69.6500 7.85603   4
   1   7   1 59.2352 7.87804   4
   1   7   1 79.5664 8.68957   6
   1   7   1 83.6947 7.23608   5
  -1   7  -1 84.4166 9.40432   4
  -1   7  -1 77.1430 8.45837   5
   1   7   1 82.9335 9.12400   6
  -3  -7  -1 104.115 7.50724   5
  -3  -7  -1 93.6388 7.66793   3
   3  -7   1 102.727 8.92648   4
   3  -7   1 98.6435 9.31896   5
  -3  -7  -1 88.7296 8.99321   6
   3  -7   1 106.322 9.41646   2
  -3   7  -1 106.582 7.28001   6
   3   7   1 108.090 10.4667   4
  -3   7  -1 105.340 9.87836   4
   3   7   1 102.378 9.71889   6
   3   7   1 87.9114 9.12124   6
   3   7   1 77.8655 6.88577   5
   5  -7   1 338.127 14.5851   2
  -5  -7  -1 339.601 13.6742   3
   5  -7   1 312.295 14.7182   5
  -5  -7  -1 325.047 13.9017   6
  -5  -7  -1 340.841 14.3384   6
   5  -7   1 313.902 13.5750   4
  -5   7  -1 337.170 15.7190   1
   5   7   1 321.982 14.8872   4
   5   7   1 315.079 13.9663   6
   5   7   1 323.452 10.6697   5
  -5   7  -1 344.313 14.5549   4
  -5   7  -1 323.021 11.8696   6
   5   7   1 326.073 14.0790   6
   7  -7   1 234.066 13.5363   4
  -7  -7  -1 238.605 13.3592   3
  -7  -7  -1 216.197 14.5781   6
  -7  -7  -1 221.042 13.2451   6
   7  -7   1 232.421 12.8252   2
   7  -7   1 228.663 13.5950   5
   7   7   1 251.519 12.4957   6
  -7   7  -1 239.245 6.72453   6
  -7   7  -1 267.840 13.5879   4
  -7   7  -1 236.454 15.1026   1
   7   7   1 231.729 14.0865   4
   9  -7   1 85.7012 10.8497   5
  -9  -7  -1 81.4972 9.75674   3
   9  -7   1 74.8175 9.15484   2
  -9  -7  -1 73.7217 9.25701   6
  -9   7  -1 92.1929 9.49213   4
   9   7   1 88.6755 10.4555   4
   9   7   1 67.8798 8.70022   1
  -9   7  -1 71.5308 4.21167   3
   9   7   1 81.3971 8.73403   6
   9   7   1 67.4607 10.0004   6
   9   7   1 75.4266 8.55846   6
  -9   7  -1 78.4265 10.8841   1
 -11  -7  -1 -1.1390 6.17107   3
  11  -7   1 5.99951 6.03661   2
  11  -7   1 -8.1542 6.17830   5
 -11  -7  -1 -7.2731 6.20947   6
  11   7   1 1.18497 4.44652   6
  11   7   1 2.36222 4.56033   6
  11   7   1 -0.4219 4.59885   1
 -11   7  -1 2.33515 6.37375   1
 -11   7  -1 3.48676 3.15738   3
 -11   7  -1 6.45113 5.36026   4
  13  -7   1 40.5770 8.34986   2
 -13  -7  -1 23.0928 7.85688   3
 -13  -7  -1 32.0337 8.58883   6
  13  -7   1 35.4433 9.24395   5
 -13   7  -1 37.8562 5.35991   3
 -13   7  -1 39.0750 7.17793   4
 -13   7  -1 33.8279 7.95570   1
  13   7   1 29.2607 5.43942   1
 -15  -7  -1 10.2410 7.44988   6
  15  -7   1 8.02503 6.56253   2
 -15  -7  -1 6.37224 7.74258   3
  15   7   1 -0.5028 3.44895   1
 -15   7  -1 9.83232 4.86563   3
 -15   7  -1 0.88418 5.69179   1
 -15   7  -1 8.75276 5.95934   4
  17  -7   1 8.84366 7.29687   2
 -17  -7  -1 13.4813 7.33158   6
 -17  -7  -1 -1.0755 12.6392   3
 -17   7  -1 1.70614 5.39458   4
 -17   7  -1 -3.2667 5.57708   1
 -17   7  -1 2.78773 4.79821   3
 -16  -8   1 -8.9484 6.58127   3
  16  -8  -1 25.5096 7.87484   2
 -16  -8   1 -1.5461 6.76134   6
  16  -8  -1 18.8214 9.26268   5
  16   8  -1 -0.0404 3.15344   1
 -16   8   1 12.8998 7.00625   4
 -16   8   1 -6.0545 5.39620   1
 -16   8   1 -2.2152 3.47707   3
  14  -8  -1 10.7884 5.75238   2
 -14  -8   1 5.78134 7.24343   6
  14  -8  -1 18.3328 8.87922   5
 -14  -8   1 -0.5961 6.44717   3
 -14   8   1 9.06004 6.99184   1
  14   8  -1 18.8633 5.19236   6
  14   8  -1 7.21243 4.82448   1
 -14   8   1 9.65288 3.24670   3
  14   8  -1 14.9719 5.34258   6
 -14   8   1 9.01473 6.69806   4
  14   8  -1 12.2199 6.02573   1
  14   8  -1 16.8144 5.71340   6
 -12  -8   1 174.780 13.8487   3
  12  -8  -1 186.091 14.9032   5
  12  -8  -1 212.348 12.4836   2
 -12  -8   1 187.273 14.0244   6
  12   8  -1 188.624 11.1077   6
 -12   8   1 198.295 14.1517   4
  12   8  -1 216.712 12.0857   6
  12   8  -1 187.949 11.3977   1
 -10  -8   1 492.292 18.7766   3
  10  -8  -1 494.095 17.4136   2
  10  -8  -1 452.577 19.9454   5
 -10  -8   1 502.902 18.4618   6
 -10  -8   1 491.378 19.4352   6
  10   8  -1 485.685 20.5975   4
  10   8  -1 462.311 17.5745   6
  10   8  -1 471.106 12.6432   5
  10   8  -1 496.182 17.8192   1
 -10   8   1 489.132 19.7901   4
  10   8  -1 500.761 18.4018   6
 -10   8   1 493.579 13.1807   6
  -8  -8   1 310.587 15.1182   6
   8  -8  -1 301.277 16.5854   5
  -8  -8   1 321.874 14.8552   6
   8  -8  -1 340.351 14.5268   2
  -8  -8   1 314.198 14.2695   3
  -8   8   1 342.849 16.6838   4
  -8   8   1 320.778 11.3184   6
   8   8  -1 308.076 16.3060   4
   8   8  -1 315.578 11.2168   5
   8   8  -1 307.750 14.4616   6
   8   8  -1 322.806 15.4888   6
   6  -8  -1 153.046 11.6517   5
  -6  -8   1 139.732 10.3973   6
  -6  -8   1 148.418 11.3145   6
  -6  -8   1 149.073 11.6828   3
   6  -8  -1 149.138 10.6032   2
  -6   8   1 145.578 12.4503   4
   6   8  -1 149.460 12.1675   4
   6   8  -1 143.144 11.8100   6
  -6   8   1 141.888 8.97469   6
   6   8  -1 147.017 14.4036   6
   6   8  -1 131.722 8.64561   5
  -4  -8   1 6.07435 4.18685   3
  -4  -8   1 3.99663 4.75090   6
   4  -8  -1 16.8125 7.42303   5
   4  -8  -1 4.05684 5.20118   2
  -4  -8   1 10.7940 5.02459   6
  -4   8   1 5.00435 5.21314   6
  -4   8   1 5.77469 6.62705   4
   4   8  -1 0.81937 4.78865   5
   4   8  -1 0.06218 5.05304   6
   4   8  -1 9.37266 6.22298   6
   4   8  -1 3.87002 6.05310   4
  -2  -8   1 249.434 9.94218   6
  -2  -8   1 241.864 8.52848   3
   2  -8  -1 259.223 13.3304   5
  -2  -8   1 241.591 9.70214   6
   2   8  -1 232.112 13.4450   4
   2   8  -1 233.621 11.9026   5
  -2   8   1 238.004 12.1517   6
   2   8  -1 232.548 12.9466   6
  -2   8   1 239.019 14.5202   4
   0  -8   1 1650.49 37.3677   2
   0  -8  -1 1511.08 30.9898   6
   0  -8  -1 1554.53 34.5333   5
   0  -8  -1 1514.52 29.3703   3
   0  -8  -1 1500.94 33.2521   6
   0   8   1 1527.11 35.1437   6
   0   8   1 1513.40 34.2158   5
   0   8  -1 1541.64 34.3129   6
   0   8   1 1545.26 37.6687   4
   0   8  -1 1523.36 36.6759   4
  -2  -8  -1 861.333 20.4853   3
  -2  -8  -1 858.513 22.0631   6
  -2  -8  -1 859.684 22.0670   5
  -2  -8  -1 869.852 22.2501   6
   2  -8   1 837.995 24.5941   2
   2   8   1 855.793 25.7276   4
   2   8   1 881.791 24.6190   6
  -2   8  -1 851.371 25.3344   4
   2   8   1 799.265 23.2004   6
  -4  -8  -1 0.31340 7.13813   3
  -4  -8  -1 -2.8937 5.30619   6
  -4  -8  -1 1.71639 5.64782   6
   4  -8   1 -4.3830 5.28124   2
   4  -8   1 -3.6306 5.99557   5
  -4  -8  -1 3.57180 4.71790   5
  -4   8  -1 0.01085 5.92675   4
   4   8   1 0.78999 6.18425   6
   4   8   1 -1.9016 6.28344   4
   4   8   1 -4.5498 5.82752   6
   4   8   1 -2.4051 4.12776   5
  -4   8  -1 0.04892 5.87402   1
  -4   8  -1 4.14668 4.16690   6
  -6  -8  -1 30.5794 7.37885   6
   6  -8   1 24.8361 8.87183   5
   6  -8   1 31.9829 7.35758   2
  -6  -8  -1 20.8022 6.11299   3
  -6  -8  -1 25.7908 7.74223   6
  -6   8  -1 36.3712 8.56689   1
   6   8   1 26.3073 7.35540   6
   6   8   1 20.5531 4.50629   5
  -6   8  -1 26.7966 5.22023   6
  -6   8  -1 23.5742 6.95748   4
   6   8   1 18.0678 6.75232   6
   6   8   1 36.1666 8.52511   4
   8  -8   1 46.6630 9.81641   5
  -8  -8  -1 36.8326 8.35635   6
  -8  -8  -1 28.6079 7.24505   3
   8  -8   1 49.5096 8.49655   2
  -8  -8  -1 40.8815 7.50816   6
   8   8   1 41.2083 9.11538   4
   8   8   1 51.3281 13.2217   6
  -8   8  -1 44.8577 9.73042   1
  -8   8  -1 49.7162 8.57584   4
   8   8   1 51.4535 8.28936   6
  -8   8  -1 44.1869 4.88638   6
 -10  -8  -1 65.6332 9.72894   6
  10  -8   1 76.0996 11.0617   2
 -10  -8  -1 83.2366 10.7278   3
  10  -8   1 88.3823 11.5123   5
  10   8   1 77.6437 9.26966   6
  10   8   1 69.0879 9.64359   6
 -10   8  -1 105.780 10.8191   4
 -10   8  -1 69.8637 10.1921   1
  10   8   1 77.7653 9.74393   6
  10   8   1 83.4355 11.2497   4
  10   8   1 74.3764 9.00557   1
  12  -8   1 44.7072 8.40824   2
 -12  -8  -1 64.3104 10.0367   6
  12  -8   1 45.4103 9.38353   5
 -12  -8  -1 36.4877 8.55959   3
  12   8   1 44.6331 6.70388   6
 -12   8  -1 57.0448 10.0150   1
 -12   8  -1 47.3424 7.96802   4
  12   8   1 55.5524 6.89481   6
 -12   8  -1 50.6627 4.45085   3
  12   8   1 38.9056 6.81342   1
 -14  -8  -1 25.9740 8.59749   6
 -14  -8  -1 16.3018 8.26746   3
  14  -8   1 16.8566 6.98101   2
 -14   8  -1 11.7553 4.04632   3
 -14   8  -1 15.3555 6.46543   4
 -14   8  -1 20.3616 8.17912   1
  16  -8   1 19.8963 7.51834   2
 -16   8  -1 24.2672 7.52285   1
 -16   8  -1 23.5198 6.25739   4
  15  -9  -1 41.0706 7.58220   2
 -15  -9   1 49.4499 9.12406   6
  15  -9  -1 38.1681 15.8935   5
 -15  -9   1 20.0223 8.55406   3
 -15   9   1 41.6753 8.82207   4
  15   9  -1 48.1862 6.46061   1
  15   9  -1 39.0785 6.48836   6
  15   9  -1 42.4117 6.34824   6
 -15   9   1 46.2484 9.92849   1
  15   9  -1 43.3986 6.91837   6
 -13  -9   1 85.7839 11.0685   6
  13  -9  -1 76.9788 12.3748   5
 -13  -9   1 91.7211 10.9344   3
  13  -9  -1 65.9434 9.75695   2
  13   9  -1 73.2138 9.20618   6
 -13   9   1 92.5777 11.6997   4
 -13   9   1 114.856 8.10402   6
  13   9  -1 90.0245 9.68721   1
  11  -9  -1 4.17674 8.15915   5
  11  -9  -1 11.4467 5.88526   2
 -11  -9   1 6.14822 6.74880   6
 -11  -9   1 11.8619 6.81438   3
 -11  -9   1 22.2217 6.71830   6
  11   9  -1 11.3141 6.48462   6
 -11   9   1 9.97244 4.08677   6
  11   9  -1 8.26122 6.62829   6
  11   9  -1 9.11713 3.22992   5
  11   9  -1 2.83088 5.51597   1
 -11   9   1 10.0204 7.56671   4
   9  -9  -1 110.779 10.7017   2
  -9  -9   1 116.600 11.5399   6
   9  -9  -1 105.179 12.5394   5
  -9  -9   1 106.238 10.2286   3
  -9  -9   1 125.363 10.9406   6
   9   9  -1 117.441 7.67282   5
   9   9  -1 129.594 11.2788   6
  -9   9   1 134.956 13.0707   4
   9   9  -1 114.416 10.6638   1
   9   9  -1 127.524 12.0333   6
  -9   9   1 121.520 8.35152   6
   9   9  -1 100.891 12.0584   4
  -7  -9   1 5.34425 5.10940   3
  -7  -9   1 -2.1472 5.52463   6
   7  -9  -1 -1.9221 5.42767   2
  -7  -9   1 -3.8013 5.07695   6
   7  -9  -1 7.40251 6.94149   5
   7   9  -1 11.8349 6.25702   6
  -7   9   1 -3.2905 7.17684   4
   7   9  -1 0.70128 6.56491   4
  -7   9   1 4.68341 4.73776   6
   7   9  -1 6.68074 6.91038   6
   5  -9  -1 493.759 18.1739   2
   5  -9  -1 485.253 19.9247   5
  -5  -9   1 482.465 17.3421   6
  -5  -9   1 518.239 16.8264   6
  -5  -9   1 506.594 15.6704   3
  -5   9   1 514.710 17.8849   6
  -5   9   1 526.847 29.7248   4
   5   9  -1 498.676 23.2539   4
   5   9  -1 500.513 16.5801   5
   5   9  -1 503.477 19.4202   6
  -3  -9   1 1533.05 31.9507   6
   3  -9  -1 1528.09 36.8349   5
   3  -9  -1 1529.48 36.6216   2
  -3  -9   1 1486.45 34.0277   6
  -3  -9   1 1517.48 30.3120   3
  -3   9   1 1525.25 39.1732   4
   3   9  -1 1510.01 36.1072   6
  -3   9   1 1466.84 34.5496   6
   3   9  -1 1509.03 39.2178   4
   1  -9  -1 0.90859 2.27537   3
  -1  -9   1 11.5988 6.44360   2
   1  -9  -1 2.70160 3.44480   6
   1  -9  -1 -2.6567 5.94939   5
   1  -9  -1 1.81723 2.28468   3
  -1  -9   1 3.01668 2.26935   3
   1  -9  -1 3.67426 3.07168   6
   1   9  -1 3.40545 6.98506   4
   1   9  -1 5.37682 5.77589   6
  -1   9   1 8.70987 6.05860   6
  -1   9   1 -3.3201 5.97639   4
  -1  -9  -1 244.440 9.45077   3
  -1  -9  -1 235.502 10.8349   6
   1  -9   1 239.369 14.2901   2
  -1  -9  -1 252.066 13.2836   5
  -1   9  -1 235.756 14.7273   4
   1   9   1 230.008 13.8539   6
   1   9   1 261.031 23.6658   4
  -1   9  -1 221.223 12.7395   6
  -3  -9  -1 92.0947 11.3441   6
  -3  -9  -1 107.792 8.30555   3
  -3  -9  -1 93.8892 9.17692   6
  -3  -9  -1 127.265 9.60651   5
   3  -9   1 96.9269 10.6960   2
  -3   9  -1 99.6622 11.1133   4
   3   9   1 97.4149 8.72237   5
   3   9   1 107.852 13.7791   4
   3   9   1 114.502 11.9210   6
  -3   9  -1 111.933 13.5771   1
  -5  -9  -1 273.393 14.4562   6
  -5  -9  -1 265.925 12.8685   3
   5  -9   1 266.767 14.9373   2
  -5  -9  -1 267.661 13.3565   6
  -5   9  -1 267.559 12.1181   6
   5   9   1 273.505 16.5301   4
  -5   9  -1 271.533 15.2395   4
   5   9   1 270.298 11.4055   5
   5   9   1 264.189 18.8938   6
   5   9   1 257.634 14.5745   6
  -5   9  -1 289.709 16.8884   1
  -7  -9  -1 133.098 10.1153   6
  -7  -9  -1 128.258 11.4184   3
  -7  -9  -1 109.586 11.6840   6
   7  -9   1 129.367 11.9343   5
   7   9   1 126.323 7.99299   5
   7   9   1 122.051 11.5220   6
   7   9   1 128.116 11.9912   6
  -7   9  -1 124.880 11.9561   4
  -7   9  -1 116.021 13.8006   1
  -7   9  -1 121.407 10.2488   6
   7   9   1 115.249 12.9634   4
   9  -9   1 2.88232 6.76722   5
   9  -9   1 5.40004 6.30047   2
  -9  -9  -1 10.5816 7.23657   6
  -9  -9  -1 5.70554 5.78631   6
  -9  -9  -1 -4.2285 5.66854   3
  -9   9  -1 2.18744 3.53135   6
   9   9   1 -2.5959 5.68933   6
   9   9   1 -4.4050 7.17883   4
  -9   9  -1 0.13382 6.67238   1
 -11  -9  -1 15.8287 8.14791   6
  11  -9   1 23.6361 7.14577   2
 -11  -9  -1 13.8441 6.50036   3
  11   9   1 10.2711 6.36495   6
 -11   9  -1 19.4128 3.35903   6
  11   9   1 22.4877 8.91400   4
 -11   9  -1 10.9221 7.17273   4
 -11   9  -1 14.3924 8.85643   1
 -13  -9  -1 42.1200 9.66331   3
 -13  -9  -1 64.0664 10.4189   6
  13  -9   1 39.7806 8.87637   2
  13   9   1 51.3636 6.85456   6
 -13   9  -1 43.2294 9.86833   1
 -13   9  -1 56.2621 8.95435   4
  13   9   1 48.8450 7.14338   6
 -14 -10   1 13.9540 8.08925   3
  14 -10  -1 14.9724 6.31555   2
 -14 -10   1 18.9271 7.95334   6
  14 -10  -1 7.03840 9.47167   5
  14  10  -1 -0.5416 5.01202   1
 -14  10   1 12.6009 7.81475   4
 -14  10   1 28.9330 9.46063   1
  14  10  -1 12.2897 6.51865   6
  12 -10  -1 88.2875 12.9670   5
 -12 -10   1 82.4464 10.7705   3
 -12 -10   1 83.0298 11.1517   6
  12 -10  -1 74.8484 9.52234   2
  12  10  -1 65.8679 8.47098   1
 -12  10   1 79.3321 11.2429   4
  12  10  -1 108.505 11.4416   6
 -10 -10   1 42.9931 8.19501   3
 -10 -10   1 45.8465 7.86126   6
 -10 -10   1 49.4889 9.00016   6
  10 -10  -1 45.6448 10.8877   5
  10 -10  -1 51.6916 9.75051   2
  10  10  -1 51.1580 8.69889   1
  10  10  -1 56.2705 5.75799   5
 -10  10   1 41.8351 9.55172   4
  10  10  -1 52.8141 9.67137   6
 -10  10   1 49.7244 6.61848   6
  10  10  -1 50.4034 8.21521   6
  10  10  -1 44.3307 10.5268   4
   8 -10  -1 13.7115 7.29279   5
  -8 -10   1 24.8888 7.12978   6
  -8 -10   1 34.0941 7.25582   6
  -8 -10   1 34.2657 6.95817   3
   8 -10  -1 30.6019 7.34807   2
   8  10  -1 31.2168 8.25668   6
   8  10  -1 36.0245 7.88110   1
   8  10  -1 26.6960 9.12501   4
   8  10  -1 35.3054 7.36535   6
  -8  10   1 22.8625 6.13269   6
   8  10  -1 31.3283 5.84897   5
  -8  10   1 21.5133 8.72780   4
  -6 -10   1 15.4908 5.18822   3
  -6 -10   1 21.6479 6.20461   6
   6 -10  -1 3.64030 5.91570   2
  -6 -10   1 24.4590 6.87599   6
   6 -10  -1 7.07802 6.95546   5
   6  10  -1 26.1780 7.65502   6
  -6  10   1 19.5073 8.03423   4
   6  10  -1 29.2280 8.40904   4
  -6  10   1 18.4406 6.08016   6
   6  10  -1 6.51725 9.99272   1
   4 -10  -1 2.95936 6.08339   2
  -4 -10   1 4.03017 5.04656   6
  -4 -10   1 -6.8816 4.25118   6
  -4 -10   1 -1.5591 3.66582   3
   4 -10  -1 5.50471 6.80558   5
   4  10  -1 -4.4828 5.84562   6
   4  10  -1 1.36852 7.06921   4
   4  10  -1 -1.3384 5.34304   1
  -4  10   1 0.22495 5.63951   6
  -4  10   1 9.87363 7.95608   4
  -2 -10   1 7.31374 2.76221   3
   2 -10  -1 9.90916 6.48565   2
   2 -10  -1 -2.9192 6.37395   5
  -2 -10   1 7.62549 6.86053   2
   2  10  -1 17.6340 7.87300   6
   2  10  -1 0.87494 7.23819   4
  -2  10   1 -11.150 5.86298   4
  -2  10   1 5.28191 6.22130   6
   0 -10  -1 196.529 9.15714   6
   0 -10  -1 202.313 12.7258   5
   0 -10  -1 208.575 8.76479   6
   0 -10  -1 198.406 7.14775   3
   0 -10   1 211.279 14.3436   2
   0  10   1 199.669 14.0456   6
   0  10  -1 201.302 14.7482   4
   0  10  -1 183.577 13.8800   1
   0  10   1 175.174 13.6162   4
   0  10  -1 192.633 13.2391   6
   2 -10   1 63.5118 9.61551   2
  -2 -10  -1 47.3826 6.93309   6
  -2 -10  -1 59.5321 6.24034   3
  -2 -10  -1 58.9298 8.67776   5
   2  10   1 48.6771 9.54917   4
  -2  10  -1 48.3626 8.15547   6
  -2  10  -1 52.4281 9.52578   1
  -2  10  -1 59.2635 9.68721   4
   2  10   1 50.0157 9.67968   6
  -4 -10  -1 106.708 9.93072   6
  -4 -10  -1 117.577 9.17265   3
   4 -10   1 95.6080 11.1822   2
  -4 -10  -1 92.9239 9.89386   6
   4  10   1 89.4293 9.98506   5
  -4  10  -1 119.495 15.9008   6
   4  10   1 96.2654 12.3259   4
  -4  10  -1 72.7759 11.0907   1
   4  10   1 94.6489 11.0145   6
  -4  10  -1 79.8301 10.9020   4
  -6 -10  -1 22.4222 6.63982   3
  -6 -10  -1 32.5780 7.70564   6
   6 -10   1 37.8832 8.16570   2
  -6 -10  -1 45.4604 7.59750   6
  -6  10  -1 34.9894 8.57758   4
  -6  10  -1 47.6055 9.88008   1
   6  10   1 23.4517 7.50517   5
   6  10   1 29.8587 8.26310   6
   6  10   1 36.4282 7.83419   6
  -6  10  -1 36.3638 6.91490   6
   6  10   1 9.85227 7.26584   4
  -8 -10  -1 49.3933 8.42188   6
   8 -10   1 38.5332 8.35928   2
  -8 -10  -1 26.5946 8.10826   6
  -8 -10  -1 28.4395 7.20356   3
  -8  10  -1 37.1792 9.04573   4
   8  10   1 36.3165 7.22810   6
   8  10   1 51.3458 9.27192   6
  -8  10  -1 43.7106 5.85512   6
  -8  10  -1 32.9081 9.64309   1
   8  10   1 26.4303 9.28429   4
  10 -10   1 148.094 13.0287   2
 -10 -10  -1 176.156 14.4044   6
 -10 -10  -1 150.534 13.4446   3
 -10  10  -1 176.868 14.0746   4
  10  10   1 164.704 15.3980   4
 -10  10  -1 171.073 16.7842   1
  10  10   1 176.906 13.1982   6
 -12 -10  -1 37.7084 9.34930   6
  12 -10   1 34.0650 9.03145   2
 -12 -10  -1 45.7126 9.81965   3
  12  10   1 36.4976 7.29337   6
 -12  10  -1 31.6881 10.8286   1
 -12  10  -1 46.1578 9.15907   4
  11 -11  -1 0.72101 5.94392   2
 -11 -11   1 7.22063 6.49113   3
  11 -11  -1 12.9450 9.46153   5
 -11  11   1 -0.1891 7.30321   4
  11  11  -1 1.93944 8.10044   4
  11  11  -1 9.06268 8.40817   6
  11  11  -1 14.5644 6.97476   1
   9 -11  -1 -3.3625 5.30348   2
  -9 -11   1 10.3683 7.11365   6
  -9 -11   1 9.31774 5.99010   3
   9 -11  -1 14.1969 8.60098   5
   9  11  -1 4.10132 6.74063   1
   9  11  -1 14.3917 7.61725   6
  -9  11   1 -4.0570 7.33286   4
   9  11  -1 9.59264 7.29176   4
   7 -11  -1 12.3282 7.02389   2
  -7 -11   1 6.40362 5.34358   3
  -7 -11   1 8.88989 6.27342   6
  -7 -11   1 5.91780 5.79009   6
   7 -11  -1 11.2558 7.81494   5
   7  11  -1 1.55724 6.67235   6
  -7  11   1 8.75905 5.57439   6
   7  11  -1 7.86326 7.08619   1
  -7  11   1 14.4624 8.48798   4
   7  11  -1 9.65061 8.56712   4
  -5 -11   1 63.5403 7.35888   6
   5 -11  -1 28.7105 9.54017   5
  -5 -11   1 52.3342 7.42396   6
   5 -11  -1 50.0044 8.79920   2
  -5  11   1 62.7076 9.31069   6
   5  11  -1 49.6393 9.04663   1
  -5  11   1 49.3740 10.8014   4
   5  11  -1 60.5381 10.9716   4
  -3 -11   1 119.759 7.37093   6
  -3 -11   1 113.621 6.21001   3
   3 -11  -1 149.824 13.0096   5
  -3 -11   1 106.003 12.4978   2
   3 -11  -1 111.070 11.8039   2
   3  11  -1 95.0552 12.6158   4
   3  11  -1 119.838 13.7285   1
   3  11  -1 141.342 12.4145   6
  -3  11   1 120.931 13.9651   4
  -3  11   1 94.6670 14.4074   6
  -1 -11   1 22.1517 8.03279   2
   1 -11  -1 22.4573 7.43286   2
   1 -11  -1 11.8608 7.29705   5
   1  11  -1 6.46411 7.50492   1
  -1  11   1 6.34373 6.92933   6
   1  11  -1 11.3822 7.82046   4
   1  11  -1 30.1655 7.84313   6
  -1  11   1 26.6829 8.73336   4
  -1 -11  -1 2.41826 2.84793   3
  -1 -11  -1 1.84527 5.57439   6
  -1 -11  -1 8.40363 4.17870   6
   1 -11   1 -0.7566 6.50480   2
  -1  11  -1 -0.4616 6.34751   6
   1  11   1 -6.7036 5.95186   6
  -1  11  -1 2.97743 7.08885   4
   1  11   1 -3.0863 7.68708   4
  -1  11  -1 4.28380 7.10714   1
   3 -11   1 0.98779 6.15172   2
  -3 -11  -1 5.63237 5.22935   6
  -3 -11  -1 -3.0863 4.87706   6
  -3  11  -1 -0.4472 6.29501   6
  -3  11  -1 -4.9310 6.47258   4
  -3  11  -1 4.82156 7.35340   1
   3  11   1 -4.1102 6.92642   4
   5 -11   1 -11.347 5.67952   2
  -5 -11  -1 9.52523 6.43634   6
  -5 -11  -1 15.7057 5.79686   3
  -5 -11  -1 13.6122 5.90844   6
   5  11   1 1.20367 8.40151   4
  -5  11  -1 6.52770 8.52178   1
  -5  11  -1 1.17211 6.91145   4
   5  11   1 13.9498 7.62299   6
  -5  11  -1 7.76171 5.48876   6
  -7 -11  -1 7.42424 5.54273   3
  -7 -11  -1 12.7044 7.37706   6
   7 -11   1 20.5992 7.68455   2
  -7  11  -1 14.1422 8.36681   1
  -7  11  -1 18.0655 8.21256   4
   7  11   1 18.6833 8.36812   6
   7  11   1 23.3596 10.0071   4
  -9 -11  -1 0.17181 6.06111   3
   9 -11   1 -2.3009 6.34872   2
  -9 -11  -1 12.6486 9.29980   6
   9  11   1 7.36382 8.46443   4
  -9  11  -1 15.2189 8.02895   4
   9  11   1 11.5894 11.8471   6
  -9  11  -1 1.33910 9.88421   1
   6 -12  -1 24.2552 8.82528   5
  -6 -12   1 20.7771 5.30842   3
  -6 -12   1 15.9574 6.35514   6
   6 -12  -1 18.6467 7.50581   2
   6  12  -1 10.9895 8.20350   4
   6  12  -1 17.6452 8.37438   6
  -6  12   1 23.7887 7.51841   6
   6  12  -1 30.1302 9.33490   1
   4 -12  -1 20.9512 8.78701   5
  -4 -12   1 14.4971 4.11923   3
  -4 -12   1 21.2734 8.23133   2
   4 -12  -1 22.7623 7.69753   2
  -4 -12   1 20.2950 4.76763   6
  -4 -12   1 27.1233 5.18448   6
  -4  12   1 19.7785 9.05164   4
   4  12  -1 26.2061 14.8650   4
   4  12  -1 9.98247 8.47437   1
   4  12  -1 8.21790 7.03136   6
  -4  12   1 32.1880 8.67049   6
  -2 -12   1 54.6902 10.3429   2
   2 -12  -1 92.5245 11.9945   5
   2 -12  -1 77.4331 11.1550   2
   2  12  -1 78.2232 12.0839   1
   2  12  -1 78.4269 12.7958   4
  -2  12   1 80.7956 12.7614   4
  -2  12   1 94.9776 11.8864   6
   2  12  -1 119.536 12.2999   6
   0 -12   1 120.501 13.4097   2
   0 -12  -1 142.606 13.5750   2
   0  12  -1 135.203 16.0722   1
   0  12   1 156.613 13.7926   6
   0  12  -1 148.408 14.9684   4
   0  12   1 129.794 15.7324   4
   0  12  -1 171.037 14.0788   6
  -2 -12  -1 169.395 9.02225   6
   2 -12   1 193.255 15.5637   2
  -2 -12  -1 157.671 7.79609   3
  -2 -12  -1 206.720 13.4672   6
  -2  12  -1 187.453 19.6063   6
  -2  12  -1 143.688 15.5583   4
   2  12   1 218.997 15.4841   6
  -2  12  -1 122.031 19.6554   1
  -4 -12  -1 108.894 11.2305   6
   4 -12   1 130.055 13.4328   2
  -4 -12  -1 120.549 8.95843   3
  -4  12  -1 123.336 14.1306   4
   4  12   1 134.428 14.0311   6
  -4  12  -1 138.460 12.5166   6
  -4  12  -1 137.274 15.1933   1
   4  12   1 86.0431 13.1065   4
 -22   0   2 82.0680 12.1576   3
  22   0  -2 102.016 9.10404   5
 -20   0   2 337.414 18.1456   3
  20   0  -2 357.310 13.8309   5
 -20   0   2 324.337 10.9605   6
 -18   0   2 1044.23 22.4473   6
  18   0  -2 1138.58 26.5349   5
 -16   0   2 1369.39 26.1587   6
 -16   0   2 1347.24 31.6462   2
  16   0  -2 1407.30 32.5210   5
 -16   0   2 1406.81 35.0593   3
 -14   0   2 43.7334 5.76299   2
 -14   0   2 41.3175 7.38208   3
 -14   0   2 38.4025 4.08593   6
  14   0  -2 35.1685 5.85273   5
  14   0  -2 36.7242 9.52556   3
 -14   0   2 36.9340 3.59583   6
  12   0  -2 511.890 23.8318   3
  12   0  -2 514.334 14.4103   5
 -12   0   2 508.270 10.7976   6
 -12   0   2 530.395 11.1728   6
 -12   0   2 524.192 16.8173   3
 -12   0   2 504.153 10.9601   1
 -10   0   2 676.520 18.1217   3
  10   0  -2 645.945 17.8559   3
 -10   0   2 654.719 12.8319   6
 -10   0   2 645.726 13.4957   1
  10   0  -2 616.249 15.7315   5
 -10   0   2 650.584 12.8059   6
  -8   0   2 7479.55 119.595   6
  -8   0   2 7342.32 119.542   6
  -8   0   2 7506.84 124.170   3
   8   0  -2 7135.27 121.964   5
   8   0  -2 7104.23 123.704   3
  -8   0   2 7242.25 120.208   1
  -6   0   2 8603.27 139.799   6
  -6   0   2 8565.66 140.438   1
   6   0  -2 8355.57 140.348   1
   6   0  -2 8676.90 142.547   3
   4   0  -2 3430.73 59.5327   1
   4   0  -2 3409.40 60.0316   3
   4   0  -2 3505.78 58.6088   6
  -4   0   2 3588.92 60.4135   3
  -4   0   2 3519.55 58.9017   6
  -4   0   2 3505.12 59.5890   1
  -4   0   2 3509.31 58.9263   6
   0   0  -2 1351.46 24.1160   6
   0   0   2 1318.59 22.5938   4
   0   0   2 1343.54 23.5829   6
   0   0  -2 1316.29 23.9453   6
   0   0  -2 1335.45 24.8587   2
   0   0   2 1333.13 25.7034   1
   0   0   2 1354.20 24.8968   2
   0   0  -2 1382.06 26.0107   1
   2   0   2 9939.01 164.132   1
  -2   0  -2 9972.45 164.294   2
  -2   0  -2 9851.36 164.148   1
  -2   0  -2 9999.99 160.977   6
  -4   0  -2 1751.63 30.2737   4
  -4   0  -2 1705.13 32.9818   1
  -4   0  -2 1744.45 34.0710   2
   6   0   2 147.824 7.25305   1
  -6   0  -2 136.258 6.06831   4
  -6   0  -2 149.016 6.71372   5
  -6   0  -2 148.355 8.75697   2
  -6   0  -2 154.901 7.37660   1
  -8   0  -2 1258.31 26.4923   1
  -8   0  -2 1274.58 25.8289   5
   8   0   2 1311.94 26.5159   1
  10   0   2 586.308 15.4252   1
 -10   0  -2 617.340 21.4146   2
 -10   0  -2 600.260 15.3092   5
 -10   0  -2 576.429 15.4751   1
 -12   0  -2 364.478 11.9262   1
 -12   0  -2 359.324 16.3121   3
 -12   0  -2 329.709 11.5680   5
 -12   0  -2 340.479 12.6116   4
 -14   0  -2 10.4673 5.51390   4
 -14   0  -2 16.3866 4.74941   5
 -14   0  -2 14.8671 4.05647   1
 -14   0  -2 3.56941 6.52720   3
 -16   0  -2 57.5155 8.26927   4
 -16   0  -2 59.1065 5.68157   6
 -16   0  -2 44.6874 9.91724   3
 -16   0  -2 52.3489 6.31329   5
 -16   0  -2 53.9206 5.40094   1
 -18   0  -2 5.27654 3.12687   1
 -18   0  -2 -7.3827 3.94899   6
 -18   0  -2 15.2512 6.39872   5
 -18   0  -2 -3.6636 6.76788   3
  23  -1  -2 18.1548 5.82398   5
  23   1  -2 17.8777 4.77385   5
 -23   1   2 25.1149 8.34231   3
  21  -1  -2 25.5773 6.42357   5
 -21  -1   2 23.3818 8.41218   3
 -21   1   2 43.1989 4.90785   6
 -21   1   2 23.8823 8.71607   3
  21   1  -2 35.0083 5.97038   5
 -19  -1   2 16.2017 7.73636   3
  19  -1  -2 4.46444 5.75337   5
  19   1  -2 8.54693 4.71401   5
 -19   1   2 2.42981 6.43411   3
 -17  -1   2 14.6696 6.89428   3
  17  -1  -2 6.66897 5.89741   5
 -17  -1   2 7.12954 4.22884   6
 -17   1   2 0.66044 4.36599   2
 -17   1   2 5.41733 2.72718   1
 -17   1   2 6.01708 2.93719   1
  17   1  -2 5.40448 4.67580   5
 -17   1   2 13.8369 7.04415   3
 -15  -1   2 338.720 10.8757   6
 -15  -1   2 363.218 15.8429   3
  15  -1  -2 355.151 13.6778   5
 -15   1   2 343.996 12.9885   2
  15   1  -2 349.891 11.7140   5
 -15   1   2 349.692 10.0409   1
 -15   1   2 313.018 10.6051   1
 -15   1   2 349.454 15.6193   3
  13  -1  -2 84.9327 8.13506   5
 -13  -1   2 83.1318 5.82759   6
  13  -1  -2 71.7424 7.55509   3
 -13  -1   2 81.8173 5.48305   6
 -13  -1   2 84.6088 8.71817   3
 -13   1   2 81.4298 8.71592   3
 -13   1   2 85.1958 7.27040   5
 -13   1   2 79.4232 6.74889   2
  13   1  -2 84.6873 8.21987   3
 -13   1   2 78.7475 5.98020   1
  13   1  -2 83.0468 6.48565   5
 -11  -1   2 246.733 8.15993   6
 -11  -1   2 232.524 7.91399   6
 -11  -1   2 237.747 11.0951   3
  11  -1  -2 257.374 11.2018   3
  11  -1  -2 239.450 10.1633   5
 -11   1   2 231.355 8.16807   1
  11   1  -2 246.079 11.5398   3
  11   1  -2 243.707 8.69462   5
 -11   1   2 241.510 9.98839   5
 -11   1   2 245.476 11.2760   3
 -11   1   2 259.248 9.14015   2
  -9  -1   2 1049.38 24.2226   3
   9  -1  -2 986.325 22.4195   5
   9  -1  -2 1008.16 22.9733   3
  -9  -1   2 1048.87 20.6091   6
  -9  -1   2 1037.13 20.5528   6
  -9  -1   2 1017.45 18.4680   1
   9   1  -2 1020.89 20.9649   5
  -9   1   2 1046.58 23.4030   3
  -9   1   2 1015.63 20.7049   2
  -9   1   2 1046.82 22.4732   5
  -9   1   2 1012.60 20.9417   1
   9   1  -2 994.888 23.7249   3
  -7  -1   2 273.389 8.26917   6
  -7  -1   2 285.607 8.47453   6
   7  -1  -2 256.433 9.11572   5
  -7  -1   2 280.419 7.26375   1
   7  -1  -2 272.615 9.56601   3
  -7   1   2 268.084 9.43871   3
   7   1  -2 281.290 7.35978   1
  -7   1   2 277.317 7.14461   2
  -7   1   2 290.755 9.01714   1
   7   1  -2 281.953 7.09322   6
   7   1  -2 277.652 10.3001   3
   5  -1  -2 640.454 14.8873   5
  -5  -1   2 644.042 15.1759   3
  -5  -1   2 674.990 18.0131   6
  -5  -1   2 612.564 13.4557   1
   5  -1  -2 618.712 14.2771   3
   5   1  -2 631.339 13.6087   6
  -5   1   2 639.664 12.5792   6
  -5   1   2 623.449 11.0725   2
  -5   1   2 642.008 14.6906   1
  -5   1   2 621.518 12.8700   6
  -5   1   2 636.709 12.9470   6
   5   1  -2 652.086 15.3503   3
   5   1  -2 624.607 13.4982   1
  -5   1   2 625.124 14.6286   3
   5   1  -2 635.654 13.4644   6
  -1  -1   2 701.609 15.4367   1
   1  -1  -2 687.051 13.9134   4
  -1  -1   2 700.123 13.5410   6
   1  -1  -2 670.721 14.3550   6
   1  -1  -2 696.880 15.5612   1
   1  -1  -2 682.367 14.9435   3
  -1  -1   2 697.403 14.8588   3
  -1  -1   2 682.406 13.1214   4
  -1  -1   2 707.123 14.6953   2
   1  -1  -2 704.371 14.5633   6
  -1   1   2 682.113 15.4150   1
  -1   1   2 699.956 14.4994   6
   1   1  -2 705.896 14.7049   2
   1   1  -2 692.638 13.8846   6
  -1   1   2 690.404 14.3992   6
  -1   1   2 691.562 14.0352   4
   1   1  -2 702.399 15.6114   1
   1   1  -2 693.909 14.8096   3
   1   1  -2 681.838 13.8687   6
  -3  -1  -2 20.9205 3.32144   6
   3  -1   2 15.4753 4.09620   1
  -3  -1  -2 18.8724 3.22582   6
   3  -1   2 16.5308 4.26225   2
  -3  -1  -2 14.3884 3.62440   1
  -3  -1  -2 15.5126 2.96537   4
  -3   1  -2 22.5742 4.38957   2
   3   1   2 15.9435 2.93877   4
  -3   1  -2 19.8782 1.96678   4
  -3   1  -2 18.5636 4.16776   1
   3   1   2 13.1704 3.36707   1
  -5  -1  -2 805.760 18.3412   1
   5  -1   2 825.330 19.0612   1
  -5  -1  -2 841.725 20.0394   2
  -5  -1  -2 835.056 16.3932   6
  -5  -1  -2 831.697 16.4619   6
   5  -1   2 842.142 20.1630   2
  -5  -1  -2 844.451 17.5481   4
  -5   1  -2 830.362 19.2656   1
  -5   1  -2 813.959 19.8946   2
  -5   1  -2 808.963 18.4251   5
  -7  -1  -2 1370.85 30.9242   2
   7  -1   2 1536.95 39.7898   2
  -7  -1  -2 1408.54 28.2127   1
  -7  -1  -2 1397.00 25.6662   6
  -7  -1  -2 1437.21 25.8306   6
  -7  -1  -2 1384.01 26.2425   5
   7  -1   2 1406.99 29.1625   1
  -7  -1  -2 1396.60 27.8607   4
  -7   1  -2 1395.55 28.5975   5
  -7   1  -2 1399.37 29.4415   1
  -7   1  -2 1390.41 30.7211   2
   7   1   2 1415.23 27.9635   1
  -9  -1  -2 311.324 13.2599   2
   9  -1   2 308.023 10.9963   1
  -9  -1  -2 302.870 8.35036   6
  -9  -1  -2 305.243 10.8397   4
  -9  -1  -2 308.867 10.2441   1
  -9  -1  -2 319.473 11.4614   5
  -9   1  -2 319.119 13.0264   2
  -9   1  -2 293.614 10.9057   5
   9   1   2 298.158 9.84650   1
  -9   1  -2 300.382 11.1462   1
 -11  -1  -2 158.207 7.05928   5
 -11  -1  -2 157.256 9.25426   4
 -11  -1  -2 158.075 10.9386   3
 -11  -1  -2 175.069 8.12551   1
 -11  -1  -2 161.001 6.69379   6
 -11   1  -2 172.197 8.95442   5
 -11   1  -2 150.759 11.2208   3
  11   1   2 164.119 7.79056   1
 -11   1  -2 151.131 8.86599   1
 -13  -1  -2 187.808 13.6209   3
 -13  -1  -2 184.587 7.87077   5
 -13  -1  -2 197.355 8.40028   1
 -13  -1  -2 184.654 7.67332   6
 -13   1  -2 181.540 9.80216   1
 -13   1  -2 183.091 11.3820   5
 -13   1  -2 201.604 13.2642   3
 -15  -1  -2 93.9471 6.22843   1
 -15  -1  -2 96.3784 6.91412   6
 -15  -1  -2 83.1776 11.3294   3
 -15  -1  -2 98.6643 6.41495   5
 -15  -1  -2 74.8240 8.32903   4
 -15   1  -2 98.2375 8.15633   5
 -15   1  -2 81.8592 7.73623   1
 -17  -1  -2 -0.6343 6.54093   3
 -17  -1  -2 12.3498 4.54213   6
 -17  -1  -2 10.0556 3.78963   5
 -17  -1  -2 -5.3053 4.17526   6
 -17   1  -2 1.30089 6.86655   3
 -17   1  -2 2.72226 3.98549   1
 -19  -1  -2 6.62120 8.41241   3
 -19   1  -2 15.7736 7.22588   3
 -19   1  -2 18.9979 5.50573   4
 -19   1  -2 4.38188 4.10852   1
 -22  -2   2 -10.319 6.34040   3
  22  -2  -2 -0.2884 6.09799   5
 -22   2   2 3.32539 5.78370   4
 -22   2   2 -0.3367 6.86539   3
 -20  -2   2 2.89260 7.16219   3
 -20  -2   2 5.93675 4.51066   6
  20  -2  -2 -0.3197 5.76447   5
 -20   2   2 0.72700 2.94680   1
 -20   2   2 -9.0005 5.66809   3
 -20   2   2 -2.4687 2.95305   1
  20   2  -2 6.63704 3.58169   5
  18  -2  -2 5.85135 5.81231   5
 -18  -2   2 4.16479 7.33891   3
 -18  -2   2 14.2458 4.91163   6
  18   2  -2 8.23887 3.86084   5
 -18   2   2 -2.1397 5.77799   3
 -18   2   2 4.58738 3.38238   1
 -18   2   2 6.87571 3.43532   1
  16  -2  -2 73.7148 9.15431   5
 -16  -2   2 57.3220 6.65161   6
 -16  -2   2 67.8674 10.0391   3
 -16   2   2 67.3292 6.56165   1
  16   2  -2 67.4424 6.11349   5
 -16   2   2 52.9811 8.03098   3
 -16   2   2 67.8421 7.37468   2
 -16   2   2 63.3116 8.14769   5
 -14  -2   2 2.71401 5.89260   3
  14  -2  -2 7.03440 4.65775   3
  14  -2  -2 -1.9537 4.99357   5
 -14  -2   2 8.79071 4.25697   6
 -14   2   2 6.92855 5.35283   3
 -14   2   2 3.67050 4.87685   5
  14   2  -2 6.32332 3.62419   5
 -14   2   2 2.30221 3.71786   2
 -12  -2   2 96.1423 6.80388   6
 -12  -2   2 83.3408 9.21030   3
 -12  -2   2 90.6247 6.27691   6
  12  -2  -2 96.2991 10.0997   5
  12  -2  -2 97.9767 8.00801   3
  12   2  -2 88.1199 7.98478   3
 -12   2   2 92.6111 7.67466   5
 -12   2   2 85.9243 6.21464   2
  12   2  -2 92.1666 5.63515   5
  10  -2  -2 1177.25 27.0848   5
  10  -2  -2 1209.49 26.6267   3
 -10  -2   2 1254.01 25.5837   6
 -10  -2   2 1225.01 25.4526   6
 -10   2   2 1252.21 24.6001   2
 -10   2   2 1211.14 26.7558   5
  10   2  -2 1240.94 28.8222   3
  10   2  -2 1241.31 21.3864   1
 -10   2   2 1224.83 26.9760   3
  10   2  -2 1245.33 24.0244   5
  -8  -2   2 1790.40 35.5811   3
   8  -2  -2 1698.17 33.2292   3
   8  -2  -2 1730.99 34.5366   5
  -8  -2   2 1702.98 32.8560   6
  -8  -2   2 1712.81 30.4765   1
   8   2  -2 1715.91 35.0596   3
  -8   2   2 1705.67 34.6834   4
   8   2  -2 1752.83 31.3042   6
  -8   2   2 1674.39 33.3821   3
  -8   2   2 1688.28 30.9425   2
   8   2  -2 1746.43 31.3268   6
  -8   2   2 1725.83 34.2619   5
   8   2  -2 1731.78 30.5652   1
  -6  -2   2 100.560 6.14642   6
  -6  -2   2 102.901 7.22404   3
  -6  -2   2 107.498 5.30138   1
   6  -2  -2 102.439 7.06919   5
  -6  -2   2 114.887 6.49500   6
  -6   2   2 107.195 7.12845   4
  -6   2   2 110.368 3.63716   6
  -6   2   2 104.700 4.00922   2
   6   2  -2 107.769 5.99593   6
   6   2  -2 110.982 5.87826   6
   6   2  -2 108.820 5.44930   1
  -6   2   2 101.014 3.60624   6
  -6   2   2 103.717 6.70737   5
   6   2  -2 103.390 6.93696   3
  -6   2   2 97.1363 5.83080   3
  -4  -2   2 1354.25 26.0766   6
  -4  -2   2 1346.21 26.0420   1
   4  -2  -2 1361.19 26.8733   5
  -4  -2   2 1360.02 26.4920   3
  -4  -2   2 1350.97 25.9915   6
  -4  -2   2 1340.78 26.4999   4
   4  -2  -2 1347.77 23.3613   6
   4  -2  -2 1378.86 25.7273   3
   4  -2  -2 1409.37 27.0698   4
   4  -2  -2 1354.95 23.3521   2
  -4   2   2 1354.86 25.6357   3
  -4   2   2 1369.30 27.0159   4
  -4   2   2 1371.23 26.9274   5
  -4   2   2 1358.83 24.7791   6
   4   2  -2 1376.46 26.1857   6
  -4   2   2 1345.67 24.6930   6
   4   2  -2 1354.96 25.9048   6
   4   2  -2 1323.56 26.0818   1
  -2  -2   2 650.517 14.9751   2
   2  -2  -2 686.663 14.3296   6
  -2  -2   2 638.415 14.1643   4
   2  -2  -2 665.957 15.1889   5
  -2  -2   2 664.101 13.9279   6
  -2  -2   2 644.969 14.3335   3
  -2  -2   2 661.147 14.1044   6
   2  -2  -2 669.249 14.1084   6
   2  -2  -2 635.505 14.3700   3
   2   2  -2 657.616 14.3033   3
  -2   2   2 695.641 14.8640   6
  -2   2   2 665.904 16.1936   1
   2   2  -2 634.615 15.3871   6
   2   2  -2 656.837 14.4183   4
  -2   2   2 659.672 15.0766   4
   2   2  -2 670.423 15.8833   1
  -2   2   2 667.856 14.5026   6
   0  -2  -2 512.708 12.5876   6
   0  -2  -2 525.856 12.4950   4
   0  -2   2 521.031 14.0378   1
   0  -2  -2 518.393 12.5664   6
   0  -2   2 533.661 13.3625   2
   0  -2   2 512.193 11.1499   4
   0   2  -2 505.600 10.7304   6
   0   2  -2 518.035 13.0945   2
   0   2   2 522.084 12.5998   6
   0   2  -2 530.181 11.3219   4
   0   2   2 506.899 12.5594   4
   0   2   2 523.924 12.5349   6
   0   2   2 525.546 15.5850   1
   0   2   2 509.551 12.5047   6
   0   2  -2 514.480 10.7139   6
   0   2  -2 530.131 11.9755   3
   2  -2   2 203.610 8.25374   2
   2  -2   2 195.941 8.80759   1
  -2  -2  -2 196.739 7.87850   6
   2  -2   2 209.651 5.89946   4
  -2  -2  -2 204.298 8.48549   1
  -2  -2  -2 221.108 8.08196   6
  -2  -2  -2 208.517 7.85867   6
  -2  -2  -2 206.656 7.70914   4
   2   2   2 206.773 7.34702   6
   2   2   2 194.727 7.39105   4
   2   2   2 204.803 9.60806   1
  -2   2  -2 201.783 7.92688   5
  -2   2  -2 206.605 8.19578   2
  -2   2  -2 204.775 5.97206   4
  -2   2  -2 205.446 9.14687   1
   2   2   2 218.608 8.54713   6
  -4  -2  -2 1175.57 23.7229   6
  -4  -2  -2 1225.05 24.0355   6
  -4  -2  -2 1178.02 24.5130   1
  -4  -2  -2 1217.24 24.1621   4
   4  -2   2 1208.71 25.8484   1
   4  -2   2 1162.64 25.6417   2
  -4  -2  -2 1236.83 24.1124   6
   4   2   2 1164.57 23.9563   4
  -4   2  -2 1175.71 25.6970   2
   4   2   2 1177.31 21.8058   6
  -4   2  -2 1163.34 25.7473   1
   4   2   2 1184.55 23.0219   6
  -4   2  -2 1196.73 22.0303   4
  -4   2  -2 1162.34 24.9425   5
   4   2   2 1172.26 24.6783   1
  -6  -2  -2 7.18606 3.84504   6
  -6  -2  -2 6.87502 3.34648   6
   6  -2   2 -0.3032 3.70001   1
  -6  -2  -2 4.96184 3.65960   4
   6  -2   2 0.45816 3.94902   2
  -6  -2  -2 7.03279 3.77342   6
  -6  -2  -2 8.02359 3.56854   1
  -6   2  -2 7.31338 2.98078   4
  -6   2  -2 9.85752 4.22575   5
  -6   2  -2 7.04089 4.35726   2
  -6   2  -2 2.81375 3.69061   1
   6   2   2 11.7546 3.49694   1
  -8  -2  -2 32.1340 4.71403   6
   8  -2   2 32.0523 5.60815   2
  -8  -2  -2 31.2551 3.36087   5
  -8  -2  -2 31.2541 4.25471   6
  -8  -2  -2 25.4318 4.71374   4
  -8  -2  -2 23.2085 4.14240   1
  -8  -2  -2 26.2031 4.58637   6
  -8   2  -2 22.4515 4.60947   1
   8   2   2 27.8193 4.00700   1
  -8   2  -2 28.8887 5.63430   2
  -8   2  -2 29.9310 4.06454   4
  -8   2  -2 27.7254 5.12567   5
 -10  -2  -2 36.3418 5.74742   4
 -10  -2  -2 47.5033 5.50816   6
 -10  -2  -2 45.1074 3.80305   5
 -10  -2  -2 49.3461 5.60260   1
 -10  -2  -2 44.3069 5.56619   6
  10  -2   2 30.4808 6.45929   2
 -10   2  -2 44.1426 6.54047   5
 -10   2  -2 48.2998 5.19264   4
  10   2   2 41.0449 4.53103   1
 -10   2  -2 32.7516 6.09174   3
 -10   2  -2 39.7882 5.82384   1
 -12  -2  -2 105.062 4.91869   5
 -12  -2  -2 101.234 10.6461   3
 -12  -2  -2 102.385 8.05037   6
 -12  -2  -2 107.652 8.27708   6
  12   2   2 106.667 6.70577   1
 -12   2  -2 109.134 8.95743   5
 -12   2  -2 113.291 8.74318   1
 -12   2  -2 99.0593 7.86961   4
 -12   2  -2 99.7309 10.2531   3
 -14  -2  -2 5.26565 5.08810   4
 -14  -2  -2 7.94442 4.70094   6
 -14  -2  -2 -5.1663 6.38471   3
 -14  -2  -2 7.02061 2.67123   5
 -14   2  -2 15.1112 6.54405   3
 -14   2  -2 -1.5480 4.14761   1
 -14   2  -2 -1.4665 4.02732   4
 -16  -2  -2 5.27024 7.54754   3
 -16  -2  -2 9.21620 4.80595   6
 -16   2  -2 8.65324 6.93991   3
 -16   2  -2 6.99849 4.84911   4
 -16   2  -2 12.3494 4.77457   1
 -18  -2  -2 0.43644 7.13449   3
 -18   2  -2 21.7498 8.19964   3
 -18   2  -2 15.1021 5.02321   1
 -18   2  -2 15.0742 5.37055   4
 -21  -3   2 4.78199 8.32671   3
  21  -3  -2 8.69179 6.92943   5
 -21  -3   2 5.13671 4.38331   6
 -21   3   2 -3.0539 3.59901   1
 -21   3   2 3.09061 4.24315   1
 -21   3   2 6.72752 5.61517   4
 -21   3   2 4.52811 6.26258   3
 -19  -3   2 53.7455 7.33176   6
 -19  -3   2 61.7909 9.69468   3
  19  -3  -2 69.8704 9.43235   5
 -19   3   2 68.1159 9.51324   4
 -19   3   2 57.5841 8.64823   1
 -19   3   2 68.8547 9.50007   3
  19   3  -2 68.1578 4.57994   5
 -17  -3   2 212.176 14.2225   3
  17  -3  -2 222.064 13.8269   5
 -17  -3   2 209.697 12.2223   6
  17   3  -2 219.053 7.52497   5
 -17   3   2 213.356 10.7686   1
 -17   3   2 221.108 13.1183   4
 -17   3   2 214.724 10.8897   2
 -17   3   2 229.566 13.5203   3
 -15  -3   2 102.500 11.1387   3
  15  -3  -2 94.1266 10.3517   5
 -15   3   2 122.330 8.29799   2
 -15   3   2 115.035 9.93137   3
  15   3  -2 111.298 5.84160   5
 -15   3   2 113.945 10.0832   4
  13  -3  -2 54.4038 6.83480   3
 -13  -3   2 52.5555 7.78309   3
  13  -3  -2 58.9608 8.06697   5
 -13  -3   2 67.2604 7.13422   6
 -13   3   2 49.8943 7.12309   5
 -13   3   2 53.9119 7.40157   4
 -13   3   2 61.7778 6.23047   2
  13   3  -2 55.3662 4.58990   5
 -13   3   2 55.8527 6.95965   3
 -11  -3   2 257.982 10.8186   6
  11  -3  -2 256.113 10.7045   3
 -11  -3   2 267.539 12.0449   4
 -11  -3   2 271.233 12.4020   3
  11  -3  -2 251.690 11.4221   5
  11  -3  -2 258.737 9.47263   2
 -11  -3   2 246.216 10.2434   6
 -11   3   2 255.389 9.34707   2
  11   3  -2 262.996 7.52323   6
  11   3  -2 267.915 7.56402   6
 -11   3   2 275.574 12.2853   4
 -11   3   2 278.267 10.6463   3
  11   3  -2 255.345 12.4030   3
   9  -3  -2 50.4511 5.19496   3
  -9  -3   2 39.7991 5.24015   6
  -9  -3   2 53.2484 6.35515   6
   9  -3  -2 47.0417 4.54231   2
  -9  -3   2 42.4244 6.24690   3
  -9  -3   2 56.2232 6.80552   4
   9  -3  -2 38.0412 6.15411   5
   9   3  -2 47.5643 4.29928   1
   9   3  -2 55.7895 5.94564   6
   9   3  -2 30.1429 4.42022   6
   9   3  -2 44.8457 6.34512   3
  -9   3   2 38.7991 5.69591   4
  -9   3   2 50.0057 6.79098   5
  -9   3   2 44.3468 4.77432   2
  -9   3   2 48.9437 5.34884   3
  -7  -3   2 2302.24 44.0761   6
   7  -3  -2 2350.28 44.9881   3
  -7  -3   2 2360.56 45.6044   4
   7  -3  -2 2362.14 41.5024   2
  -7  -3   2 2345.45 44.0026   6
   7  -3  -2 2417.01 45.6517   5
  -7  -3   2 2320.57 45.1847   3
  -7   3   2 2374.24 45.4419   5
  -7   3   2 2380.75 41.5286   2
   7   3  -2 2339.67 42.5938   1
   7   3  -2 2329.44 45.0734   3
  -7   3   2 2323.28 42.7977   3
   7   3  -2 2459.70 43.7330   6
   7   3  -2 2393.57 43.4443   6
  -7   3   2 2431.55 45.7208   4
  -5  -3   2 1399.80 33.3350   6
   5  -3  -2 1361.45 25.7916   3
   5  -3  -2 1394.60 28.5572   4
  -5  -3   2 1331.45 27.2373   6
  -5  -3   2 1344.80 27.5836   3
   5  -3  -2 1417.14 28.6694   5
   5  -3  -2 1355.51 24.9133   2
  -5  -3   2 1396.82 28.5022   4
  -5   3   2 1369.58 28.4120   4
   5   3  -2 1350.67 27.4966   3
  -5   3   2 1394.49 25.0724   6
  -5   3   2 1363.83 24.9770   6
  -5   3   2 1350.81 25.8637   3
  -5   3   2 1355.13 28.0902   5
   5   3  -2 1322.20 27.0636   6
   5   3  -2 1355.71 27.3145   1
   5   3  -2 1388.37 27.2342   6
  -3  -3   2 1873.40 34.1014   6
   3  -3  -2 1929.94 35.6500   5
   3  -3  -2 1894.76 35.9092   4
   3  -3  -2 1846.67 32.7677   6
  -3  -3   2 1871.43 34.0560   6
   3  -3  -2 1836.62 33.3960   3
  -3  -3   2 1830.16 35.0509   4
   3  -3  -2 1772.60 32.5933   6
  -3  -3   2 1835.73 35.4741   1
  -3  -3   2 1840.04 34.0814   3
  -3   3   2 1840.37 33.8878   6
   3   3  -2 1864.31 34.4955   6
   3   3  -2 1791.84 35.5310   1
   3   3  -2 1847.94 35.2257   4
  -3   3   2 1879.69 35.8015   4
  -3   3   2 1836.32 35.1536   5
  -3   3   2 1897.74 33.9978   6
   3   3  -2 1812.64 34.4295   6
   3   3  -2 1866.36 34.0669   3
   1  -3  -2 2144.54 39.9729   4
  -1  -3   2 2136.74 37.4404   6
   1  -3  -2 2145.24 38.9854   6
   1  -3  -2 2108.69 39.1690   5
   1  -3  -2 2156.30 38.9543   6
  -1  -3   2 2128.53 38.0151   3
  -1  -3   2 2119.29 40.7518   1
  -1  -3   2 2211.21 40.3747   2
  -1  -3   2 2147.36 36.8564   6
  -1   3   2 2147.06 40.1499   4
   1   3  -2 2144.30 39.0893   4
  -1   3   2 2122.58 38.9739   5
   1   3  -2 2192.30 41.2178   1
  -1   3   2 2114.83 39.3323   6
  -1   3   2 2137.55 39.2692   6
   1   3  -2 2144.65 37.9305   3
   1   3  -2 2183.11 38.4122   6
   1   3  -2 2132.78 38.1308   6
  -1  -3  -2 93.8388 7.47056   6
   1  -3   2 90.2110 6.97905   2
  -1  -3  -2 92.4079 5.30221   5
  -1  -3  -2 91.3297 6.50376   6
   1  -3   2 92.5702 6.70502   1
  -1  -3  -2 86.5536 6.36279   4
   1  -3   2 88.0594 5.41609   4
   1   3   2 94.2231 6.74125   4
  -1   3  -2 103.442 5.55981   4
   1   3   2 99.1755 7.10012   1
   1   3   2 98.9624 6.61477   6
  -1   3  -2 100.516 7.74888   1
   1   3   2 89.0384 6.59508   6
  -1   3  -2 89.5379 6.23258   2
   1   3   2 85.0338 6.27135   6
  -1   3  -2 93.3562 5.02419   3
  -1   3  -2 91.9355 7.20917   5
  -1   3  -2 93.6494 3.89429   6
  -1   3  -2 96.2274 3.92181   6
   3  -3   2 994.308 19.8435   4
  -3  -3  -2 971.906 21.4022   6
  -3  -3  -2 988.102 18.7707   5
  -3  -3  -2 979.760 21.5642   4
  -3  -3  -2 962.933 21.6413   6
   3  -3   2 988.455 22.6371   2
  -3   3  -2 964.511 19.8081   4
  -3   3  -2 972.067 22.5233   2
  -3   3  -2 974.713 22.3464   5
  -3   3  -2 988.687 23.2323   1
   3   3   2 946.526 21.6103   4
   3   3   2 993.100 21.9505   1
   3   3   2 1000.04 20.8600   6
   3   3   2 977.284 20.7472   6
  -5  -3  -2 202.168 9.04104   6
  -5  -3  -2 212.829 6.36736   5
   5  -3   2 215.666 10.2964   2
  -5  -3  -2 200.712 9.31168   4
  -5  -3  -2 219.645 9.64554   6
   5   3   2 226.582 7.86233   6
   5   3   2 211.363 9.65968   4
  -5   3  -2 205.155 7.71020   4
  -5   3  -2 189.851 9.15402   5
   5   3   2 211.051 7.71422   6
  -5   3  -2 219.992 10.1170   2
  -5   3  -2 224.097 10.6478   1
   5   3   2 210.912 8.85486   1
  -7  -3  -2 22.0888 5.10688   4
  -7  -3  -2 23.3548 4.57417   6
   7  -3   2 12.9526 4.63163   2
  -7   3  -2 17.4324 3.73982   4
  -7   3  -2 14.3569 4.39814   5
   7   3   2 22.0425 4.11541   1
  -7   3  -2 24.4200 6.42425   2
  -7   3  -2 17.4715 4.81421   1
  -9  -3  -2 107.344 8.05965   4
   9  -3   2 101.123 9.41520   2
  -9  -3  -2 103.219 8.26495   6
   9   3   2 102.028 6.73101   1
  -9   3  -2 104.490 7.04706   4
  -9   3  -2 105.732 10.2314   1
  -9   3  -2 98.7485 8.28872   5
  -9   3  -2 104.553 8.92105   2
 -11  -3  -2 479.161 16.4614   4
 -11  -3  -2 490.218 19.5183   3
  11  -3   2 515.003 18.5415   2
 -11  -3  -2 471.315 15.4595   6
 -11   3  -2 481.550 16.9561   3
 -11   3  -2 471.355 16.6160   5
 -11   3  -2 485.176 16.8337   1
  11   3   2 470.591 13.0236   1
 -11   3  -2 501.252 14.8246   4
 -13  -3  -2 200.460 17.2872   3
 -13  -3  -2 227.318 11.5138   6
 -13   3  -2 228.438 10.8930   4
 -13   3  -2 237.869 13.1778   3
 -13   3  -2 228.728 12.1516   1
 -15  -3  -2 57.6665 7.56764   6
 -15  -3  -2 58.1666 9.62754   3
 -15   3  -2 108.670 10.6426   3
 -15   3  -2 76.6683 8.24082   4
 -15   3  -2 64.3367 7.95229   1
 -17  -3  -2 27.9680 9.57724   3
 -17  -3  -2 29.6809 6.32963   6
 -17   3  -2 7.12956 5.21025   1
 -17   3  -2 11.6753 7.07529   3
 -17   3  -2 19.0203 5.77072   4
 -19  -3  -2 18.8287 8.68561   3
 -19   3  -2 25.9159 6.00016   1
 -19   3  -2 20.5646 5.87753   4
 -19   3  -2 38.7882 9.08104   3
  22  -4  -2 78.0584 10.5474   5
 -22  -4   2 51.0662 10.9830   3
 -22   4   2 59.0021 9.14692   3
 -22   4   2 59.1918 7.06791   1
 -22   4   2 47.3366 8.85112   4
  20  -4  -2 198.943 13.7383   5
 -20  -4   2 192.518 16.4706   3
 -20  -4   2 183.515 12.2999   6
 -20   4   2 192.461 11.0474   1
 -20   4   2 198.020 16.3830   3
 -20   4   2 186.492 13.1717   4
  18  -4  -2 414.116 21.5236   5
 -18  -4   2 444.586 20.7108   3
 -18  -4   2 419.932 16.5693   6
 -18   4   2 412.339 15.6143   1
 -18   4   2 442.259 17.5409   3
 -18   4   2 406.035 23.1954   4
 -16  -4   2 141.896 10.8128   6
  16  -4  -2 150.717 12.2680   5
 -16  -4   2 155.817 14.8095   3
 -16   4   2 153.540 11.7345   4
 -16   4   2 141.181 9.31238   2
 -16   4   2 148.144 10.2495   3
 -14  -4   2 55.8727 8.92817   3
 -14  -4   2 61.5731 7.99450   6
  14  -4  -2 52.2323 8.64126   5
  14   4  -2 55.2864 4.10925   5
 -14   4   2 58.3221 6.29519   2
 -14   4   2 61.7085 7.34739   3
 -14   4   2 59.0400 8.07469   4
  12  -4  -2 74.6092 7.15445   3
  12  -4  -2 77.1184 7.19508   2
 -12  -4   2 93.6669 8.74900   6
 -12  -4   2 73.5536 8.71859   3
  12  -4  -2 92.2892 9.85945   5
 -12  -4   2 83.2967 8.50549   6
  12   4  -2 83.7655 5.68778   6
  12   4  -2 73.5031 5.75875   6
 -12   4   2 77.0916 8.58628   4
 -12   4   2 79.2707 6.50216   2
  12   4  -2 77.4351 4.54089   1
 -12   4   2 82.5733 7.39211   3
 -12   4   2 90.8585 9.54540   5
  10  -4  -2 2035.52 39.0685   3
  10  -4  -2 1995.40 38.5513   2
 -10  -4   2 2242.37 51.2958   6
 -10  -4   2 2014.10 42.8649   4
  10  -4  -2 2063.95 42.8267   5
 -10  -4   2 2025.08 40.9952   6
 -10  -4   2 2041.12 42.8085   3
  10   4  -2 2057.08 37.5549   1
 -10   4   2 2103.86 42.9314   4
 -10   4   2 2094.97 39.4947   3
 -10   4   2 1956.16 42.0208   5
 -10   4   2 2018.64 38.5653   2
  10   4  -2 2048.39 38.8818   6
  10   4  -2 1925.44 42.1815   3
   8  -4  -2 4819.14 86.5411   4
   8  -4  -2 4947.48 87.1127   5
  -8  -4   2 4707.23 86.7614   4
  -8  -4   2 4790.85 86.2841   3
   8  -4  -2 4966.33 82.6332   3
   8  -4  -2 4842.03 82.5824   2
  -8  -4   2 4788.56 85.1191   6
  -8  -4   2 4813.98 85.0210   6
  -8   4   2 4915.61 82.5372   2
   8   4  -2 4660.43 85.8419   3
   8   4  -2 4864.52 84.1031   6
   8   4  -2 4801.77 83.3062   1
  -8   4   2 4736.22 82.5276   3
  -8   4   2 4733.91 86.3037   5
  -8   4   2 4911.95 87.4470   4
   8   4  -2 4926.11 84.8661   6
  -6  -4   2 647.207 16.7371   6
   6  -4  -2 622.729 14.5337   2
  -6  -4   2 617.427 17.5069   4
  -6  -4   2 634.341 16.5663   6
   6  -4  -2 627.908 13.9248   3
   6  -4  -2 646.069 17.7101   5
   6  -4  -2 633.363 17.6602   4
  -6  -4   2 623.309 16.6815   3
  -6   4   2 659.259 18.1146   4
  -6   4   2 623.127 17.2506   5
  -6   4   2 641.868 13.5717   6
  -6   4   2 633.656 13.6307   6
   6   4  -2 624.232 16.4146   6
   6   4  -2 646.142 17.9699   4
  -6   4   2 624.938 14.1021   3
   6   4  -2 681.865 18.2422   6
   6   4  -2 631.178 16.4905   1
   6   4  -2 626.593 16.6666   3
  -4  -4   2 2528.85 47.0116   3
   4  -4  -2 2620.52 45.2863   3
  -4  -4   2 2595.71 48.8394   4
  -4  -4   2 2606.54 47.2827   6
   4  -4  -2 2559.79 49.0042   4
   4  -4  -2 2665.97 49.0094   5
  -4  -4   2 2620.09 47.3479   6
   4   4  -2 2504.94 48.5295   1
  -4   4   2 2650.34 46.4547   6
   4   4  -2 2633.57 47.1176   3
   4   4  -2 2616.47 48.9647   4
  -4   4   2 2595.88 48.5972   5
  -4   4   2 2599.59 49.2003   4
   4   4  -2 2552.09 47.3888   6
   4   4  -2 2476.16 47.5622   6
  -4   4   2 2575.60 46.1421   6
   2  -4  -2 687.702 15.5099   6
  -2  -4   2 701.919 15.1616   6
   2  -4  -2 707.846 18.1504   4
  -2  -4   2 713.864 18.1012   2
   2  -4  -2 700.530 15.4306   3
  -2  -4   2 687.805 15.2677   3
  -2  -4   2 681.253 17.1289   4
   2  -4  -2 679.186 17.1800   5
  -2   4   2 693.891 18.2150   4
   2   4  -2 687.597 18.4761   1
  -2   4   2 695.757 16.6988   6
   2   4  -2 701.462 15.1759   3
   2   4  -2 698.433 17.4524   4
   2   4  -2 684.363 16.4192   6
   2   4  -2 690.211 16.2287   6
  -2   4   2 709.268 17.0200   5
   2   4  -2 701.206 17.0439   5
  -2   4   2 689.503 16.5190   6
   0  -4   2 4349.45 72.7855   3
   0  -4   2 4354.44 75.3609   4
   0  -4  -2 4378.59 75.2833   6
   0  -4  -2 4382.79 76.7214   4
   0  -4  -2 4300.01 74.7751   5
   0  -4  -2 4343.31 75.3039   6
   0  -4   2 4420.82 77.0577   2
   0   4  -2 4321.46 76.5576   5
   0   4  -2 4368.29 73.6274   6
   0   4  -2 4430.51 78.2778   1
   0   4  -2 4209.40 75.3085   4
   0   4   2 4344.90 75.6689   6
   0   4   2 4285.85 76.6199   4
   0   4  -2 4259.06 73.3977   6
   0   4   2 4366.45 74.7157   5
   0   4  -2 4338.59 72.6637   3
   0   4   2 4120.53 75.3050   6
  -2  -4  -2 3371.42 61.1104   6
   2  -4   2 3379.55 59.7860   4
   2  -4   2 3444.66 62.3981   2
  -2  -4  -2 3357.66 58.5552   5
  -2  -4  -2 3355.81 60.7710   6
  -2  -4  -2 3378.72 61.6837   4
  -2   4  -2 3386.24 62.1312   5
   2   4   2 3298.93 61.0627   6
  -2   4  -2 3385.34 56.2490   6
   2   4   2 3379.75 62.0609   1
  -2   4  -2 3382.30 57.6993   3
   2   4   2 3307.07 60.5292   6
   2   4   2 3401.73 62.0177   4
  -2   4  -2 3423.49 63.4345   1
  -2   4  -2 3440.78 56.3118   6
  -2   4  -2 3444.62 62.2282   2
  -2   4  -2 3310.45 59.8584   4
  -4  -4  -2 804.988 19.8429   6
  -4  -4  -2 810.480 16.1089   5
  -4  -4  -2 797.419 20.2572   6
   4  -4   2 806.435 18.3408   4
  -4  -4  -2 782.114 19.9886   4
   4   4   2 813.563 20.5945   4
   4   4   2 817.068 21.0441   6
   4   4   2 800.643 18.9029   6
   4   4   2 795.244 18.9704   6
   4   4   2 798.822 19.9503   1
  -4   4  -2 765.162 20.2279   2
  -4   4  -2 868.474 25.3946   1
  -4   4  -2 806.198 20.7432   5
  -4   4  -2 808.511 18.5512   4
  -6  -4  -2 96.1980 4.84804   5
  -6  -4  -2 103.193 8.50895   4
   6  -4   2 90.9820 8.32598   2
   6  -4   2 99.4631 6.44857   4
  -6  -4  -2 92.0739 8.45206   6
   6   4   2 83.7390 6.39314   6
   6   4   2 95.7225 7.29766   1
   6   4   2 97.1187 6.33552   6
  -6   4  -2 92.9155 7.54127   5
  -6   4  -2 88.2679 7.91155   2
  -6   4  -2 94.9831 8.09817   1
   6   4   2 87.5631 9.09021   4
  -6   4  -2 99.1500 6.63380   4
  -8  -4  -2 3.99883 4.87278   6
  -8  -4  -2 3.07453 4.73460   6
   8  -4   2 10.0924 5.10538   2
  -8   4  -2 3.16497 4.95513   1
  -8   4  -2 -0.4156 3.76242   4
   8   4   2 1.61539 3.71363   1
  -8   4  -2 -2.8494 4.88001   5
   8   4   2 2.85012 2.83758   6
   8   4   2 6.61209 2.95319   6
  -8   4  -2 14.6189 5.42011   2
  10  -4   2 30.7501 6.95431   2
 -10  -4  -2 18.8509 7.13888   3
 -10  -4  -2 14.8295 5.87561   4
 -10  -4  -2 26.0134 6.53921   6
 -10   4  -2 26.6502 5.84331   3
 -10   4  -2 30.7412 5.43808   4
 -10   4  -2 29.9192 6.46894   1
  10   4   2 28.4856 4.61058   1
 -12  -4  -2 19.3638 6.04985   6
 -12  -4  -2 16.3093 7.44718   3
  12  -4   2 28.0483 7.31112   2
  12   4   2 26.8013 4.08671   1
 -12   4  -2 23.5201 5.40638   4
 -12   4  -2 15.8278 5.93618   1
 -12   4  -2 23.4138 6.12593   3
 -14  -4  -2 -1.3312 6.37037   3
 -14  -4  -2 3.87175 5.49292   6
 -14   4  -2 2.50170 4.65672   4
 -14   4  -2 4.53683 5.38145   3
 -14   4  -2 -0.0556 4.68119   1
 -16  -4  -2 28.0043 7.01058   6
 -16  -4  -2 34.7706 9.60405   3
 -16   4  -2 13.3412 5.75614   1
 -16   4  -2 27.5408 6.02749   4
 -16   4  -2 28.4961 7.02374   3
 -18  -4  -2 13.5877 9.27969   3
 -18   4  -2 17.4482 5.60815   1
 -18   4  -2 21.2800 5.80091   4
 -18   4  -2 11.1067 6.31923   3
 -21  -5   2 8.44523 7.07256   6
 -21  -5   2 -13.741 7.06794   3
  21  -5  -2 -4.9736 7.54574   5
 -21   5   2 -0.2711 5.88824   3
 -21   5   2 -3.5971 5.92982   4
 -21   5   2 -0.9774 4.78614   1
 -19  -5   2 -5.1729 7.31136   3
  19  -5  -2 1.16827 6.72144   5
 -19  -5   2 6.01834 6.16780   6
 -19   5   2 4.27799 5.08572   1
 -19   5   2 4.86629 5.81510   3
 -19   5   2 -8.0885 5.54154   4
  17  -5  -2 12.8411 7.84052   5
 -17  -5   2 2.87920 5.84326   6
 -17  -5   2 6.98864 6.82937   3
 -17   5   2 0.08697 7.32724   4
 -17   5   2 7.94891 5.57868   3
 -15  -5   2 113.226 11.0740   6
  15  -5  -2 127.143 9.51900   2
  15  -5  -2 155.848 13.1642   5
 -15  -5   2 162.454 15.6853   3
 -15   5   2 115.232 10.9761   4
 -15   5   2 132.000 9.59118   3
 -15   5   2 126.779 8.76550   2
  13  -5  -2 -8.2038 6.08732   5
 -13  -5   2 1.77902 6.23199   3
 -13  -5   2 3.66119 5.63252   6
  13   5  -2 -2.0765 3.80778   6
  13   5  -2 0.21872 2.79171   1
 -13   5   2 -0.1827 5.40509   4
 -13   5   2 -1.2700 3.77887   2
 -13   5   2 -0.9199 3.87108   3
  13   5  -2 -4.8235 2.34872   5
  13   5  -2 -4.4123 3.64179   6
  11  -5  -2 148.090 8.45563   2
  11  -5  -2 158.953 11.7139   5
 -11  -5   2 139.263 10.6870   6
  11  -5  -2 166.806 8.21137   3
 -11  -5   2 150.030 11.1294   3
 -11  -5   2 130.864 9.44740   6
 -11   5   2 155.239 10.9086   4
 -11   5   2 155.469 8.41879   2
 -11   5   2 161.043 8.07443   3
  11   5  -2 161.816 11.4679   3
  11   5  -2 159.072 7.87308   1
  11   5  -2 161.688 8.82075   6
   9  -5  -2 213.987 7.95114   3
  -9  -5   2 208.138 11.6788   4
  -9  -5   2 215.554 11.4175   3
   9  -5  -2 209.795 8.85113   2
   9  -5  -2 194.889 10.9974   4
   9  -5  -2 214.987 11.3806   5
  -9  -5   2 215.038 11.1956   6
  -9  -5   2 206.719 10.5691   6
   9   5  -2 218.900 10.4351   6
  -9   5   2 207.978 8.00315   3
   9   5  -2 227.427 10.2492   6
  -9   5   2 204.880 10.7718   5
   9   5  -2 213.261 9.52375   1
  -9   5   2 240.750 12.1292   4
  -7  -5   2 290.419 11.6971   6
  -7  -5   2 289.099 11.6291   6
   7  -5  -2 273.211 12.3335   4
  -7  -5   2 270.497 11.5607   3
  -7  -5   2 274.910 12.1029   4
   7  -5  -2 298.993 12.8186   5
   7  -5  -2 279.521 8.25758   3
   7  -5  -2 269.221 9.80159   2
   7   5  -2 261.545 10.8560   3
   7   5  -2 263.750 11.0868   6
   7   5  -2 325.255 13.6266   4
  -7   5   2 270.927 8.33273   3
   7   5  -2 276.226 11.2381   1
   7   5  -2 267.299 9.45511   5
  -7   5   2 287.183 8.49167   6
  -7   5   2 274.690 12.2339   4
  -7   5   2 269.252 12.1884   5
   7   5  -2 279.827 14.8483   6
   5  -5  -2 74.4348 6.06084   2
  -5  -5   2 78.4322 8.07829   4
   5  -5  -2 77.9197 7.56753   5
  -5  -5   2 97.1603 11.7247   6
  -5  -5   2 71.4457 6.59062   3
   5  -5  -2 69.6497 7.63205   4
   5  -5  -2 74.9298 4.60998   3
  -5  -5   2 70.7016 7.08604   6
   5   5  -2 63.8860 7.09901   6
  -5   5   2 68.6825 5.85206   6
  -5   5   2 67.1652 7.08847   5
   5   5  -2 81.7250 7.76264   4
  -5   5   2 75.2772 5.74232   6
   5   5  -2 78.3589 6.52267   5
   5   5  -2 67.9228 7.63025   1
   5   5  -2 70.2320 7.60543   6
  -5   5   2 63.8822 7.08734   4
   5   5  -2 67.2268 6.33319   3
   3  -5  -2 16.7240 3.36680   6
   3  -5  -2 24.0922 5.36854   4
  -3  -5   2 17.5596 3.68460   3
   3  -5  -2 20.9733 5.64375   5
  -3  -5   2 18.5391 4.90524   6
   3  -5  -2 17.8704 3.24811   3
   3  -5  -2 16.6840 3.22699   6
  -3  -5   2 17.4562 4.72840   4
  -3   5   2 13.8521 4.59538   5
   3   5  -2 26.1815 5.16657   6
  -3   5   2 19.5947 4.42315   6
   3   5  -2 20.5057 3.55722   3
  -3   5   2 20.2392 4.40773   6
   3   5  -2 16.1445 4.96209   1
   3   5  -2 19.0931 4.57210   5
   3   5  -2 11.9496 4.54259   4
   3   5  -2 17.7750 4.60141   6
  -1  -5   2 385.999 8.95226   6
   1  -5  -2 379.915 12.2739   5
  -1  -5   2 369.360 12.6467   4
  -1  -5   2 375.329 8.93352   6
   1  -5  -2 374.290 11.5623   6
  -1  -5   2 371.436 9.72196   3
   1  -5  -2 380.065 13.5758   4
  -1   5   2 377.963 12.7338   6
   1   5  -2 373.877 13.0845   4
   1   5  -2 360.986 11.3401   6
   1   5  -2 393.894 13.0444   5
  -1   5   2 380.141 12.7764   6
  -1   5   2 385.178 12.2301   5
   1   5  -2 369.041 9.57334   3
   1   5  -2 388.265 14.4460   1
  -1  -5  -2 3187.93 57.7838   5
  -1  -5  -2 3302.92 59.3933   6
   1  -5   2 3262.72 59.3143   4
  -1  -5  -2 3242.19 60.7588   4
  -1  -5  -2 3027.87 61.1847   6
   1  -5   2 3236.17 61.3320   2
  -1   5  -2 3205.85 60.5546   5
   1   5   2 3267.20 59.6071   6
  -1   5  -2 3231.65 56.5041   6
  -1   5  -2 3359.13 62.9192   1
  -1   5  -2 3261.60 54.8965   3
  -1   5  -2 3262.94 59.3429   4
  -1   5  -2 3249.75 56.6837   6
   1   5   2 3230.49 59.5947   6
   1   5   2 3249.84 57.7882   5
  -3  -5  -2 1997.25 40.0221   6
   3  -5   2 1998.79 41.4182   2
  -3  -5  -2 1982.88 36.8955   5
  -3  -5  -2 2033.95 40.2928   6
  -3  -5  -2 2036.89 41.3352   4
   3  -5   2 1985.61 39.0320   4
  -3   5  -2 2016.16 42.9361   1
  -3   5  -2 1968.92 34.5739   6
   3   5   2 2011.60 41.2066   1
  -3   5  -2 2067.55 39.4793   4
   3   5   2 1984.65 39.8232   6
  -3   5  -2 1962.89 35.2763   3
  -3   5  -2 1985.55 41.6138   5
   3   5   2 1949.31 40.9505   4
   3   5   2 1983.60 40.5951   6
  -5  -5  -2 66.8954 7.39506   6
   5  -5   2 66.1319 7.72146   2
   5  -5   2 66.0626 6.41489   4
  -5  -5  -2 69.9051 4.56162   5
  -5  -5  -2 79.4129 7.86365   6
  -5  -5  -2 64.3123 8.57388   4
   5   5   2 75.4080 7.38418   6
   5   5   2 61.2117 7.42563   1
  -5   5  -2 75.9885 7.71959   2
   5   5   2 63.5336 7.30403   4
   5   5   2 63.4200 7.18203   6
  -5   5  -2 66.5611 5.09232   3
  -5   5  -2 73.9115 8.57927   5
  -5   5  -2 63.5746 7.99478   1
   5   5   2 73.3216 7.46183   6
  -5   5  -2 62.0509 6.69287   4
  -7  -5  -2 34.1424 6.32988   4
  -7  -5  -2 44.0872 7.23253   6
   7  -5   2 29.4299 4.85977   4
  -7  -5  -2 36.2239 6.40705   6
   7  -5   2 29.6167 6.37695   2
   7   5   2 35.9916 5.40533   6
  -7   5  -2 42.2633 5.79820   4
   7   5   2 43.7509 7.38030   4
  -7   5  -2 40.2950 7.60167   2
  -7   5  -2 35.3569 7.03463   1
   7   5   2 31.5493 5.42809   1
   7   5   2 38.7520 5.62700   6
  -9  -5  -2 123.850 11.4114   3
   9  -5   2 101.384 10.1002   2
  -9  -5  -2 114.312 10.4261   6
   9   5   2 122.729 6.81643   6
  -9   5  -2 116.437 9.89131   4
  -9   5  -2 114.594 7.70900   3
  -9   5  -2 110.110 10.5718   1
   9   5   2 116.058 8.43676   1
   9   5   2 119.443 6.71237   6
 -11  -5  -2 173.214 12.9261   3
 -11  -5  -2 171.832 12.1805   6
  11  -5   2 196.648 12.8947   2
 -11   5  -2 166.262 12.1293   1
 -11   5  -2 193.379 10.5278   4
  11   5   2 182.693 8.90668   1
 -11   5  -2 198.440 10.4505   3
  13  -5   2 154.215 12.9866   2
 -13  -5  -2 164.164 12.7146   6
  13   5   2 155.252 7.61015   1
 -13   5  -2 165.318 12.2380   1
 -13   5  -2 141.613 10.2474   3
 -13   5  -2 169.121 10.1000   4
 -15  -5  -2 30.8643 7.88492   6
 -15  -5  -2 32.7309 9.12961   3
  15  -5   2 29.6732 8.11382   2
 -15   5  -2 35.7185 7.58933   1
 -15   5  -2 26.0620 6.65049   3
 -15   5  -2 14.8202 5.67444   4
 -17  -5  -2 0.73283 6.41570   6
 -17   5  -2 -7.4932 4.80438   1
 -17   5  -2 -4.7695 5.81405   3
 -17   5  -2 -0.5749 4.84798   4
 -20  -6   2 5.10530 7.06655   6
  20  -6  -2 0.60744 7.97632   5
 -20   6   2 1.02679 5.13785   1
 -20   6   2 -4.6132 4.42798   3
 -20   6   2 4.59690 6.07465   4
 -18  -6   2 32.7928 9.60985   3
 -18  -6   2 31.2704 8.27647   6
  18  -6  -2 21.4189 7.76641   5
 -18   6   2 24.5053 5.87514   3
 -18   6   2 31.1161 6.81291   1
 -18   6   2 28.8314 7.68612   4
 -16  -6   2 27.6046 8.40584   3
  16  -6  -2 9.52260 5.55698   2
 -16  -6   2 36.5386 8.32863   6
  16  -6  -2 36.1673 8.23646   5
 -16   6   2 21.3486 5.57892   3
 -16   6   2 30.5840 7.74900   4
 -14  -6   2 73.0012 10.2596   3
  14  -6  -2 70.1613 7.91216   2
 -14  -6   2 74.8194 9.83152   6
  14   6  -2 64.3377 7.28201   6
  14   6  -2 66.2150 7.26105   6
 -14   6   2 64.1321 7.07679   2
 -14   6   2 73.8198 7.36843   3
  14   6  -2 73.4055 5.86611   1
 -14   6   2 80.4544 10.2181   4
 -12  -6   2 644.280 22.1694   3
  12  -6  -2 641.796 22.0615   5
 -12  -6   2 644.277 21.0353   6
  12  -6  -2 661.132 18.5639   2
 -12   6   2 606.372 21.0131   4
  12   6  -2 650.445 18.3236   6
  12   6  -2 636.510 17.1791   1
 -12   6   2 642.511 16.6681   3
 -10  -6   2 45.1931 7.54903   3
  10  -6  -2 40.4870 4.40208   3
  10  -6  -2 51.9489 8.89765   5
 -10  -6   2 30.9841 7.07811   6
  10  -6  -2 33.9256 5.67885   2
  10   6  -2 31.4573 4.44609   5
  10   6  -2 51.2442 7.11323   6
  10   6  -2 43.3038 6.85824   6
  10   6  -2 36.9896 5.68141   1
 -10   6   2 50.4570 8.25171   4
 -10   6   2 38.1641 3.83444   6
 -10   6   2 30.7304 4.05971   3
  -8  -6   2 125.817 9.74765   6
   8  -6  -2 128.027 5.54640   3
   8  -6  -2 118.038 7.96002   2
  -8  -6   2 133.094 9.71218   6
   8  -6  -2 108.547 9.75838   5
  -8  -6   2 127.162 9.96717   3
   8   6  -2 121.828 8.83841   3
  -8   6   2 122.027 5.51169   3
   8   6  -2 115.429 6.98240   5
   8   6  -2 129.524 9.40859   1
   8   6  -2 118.861 9.76697   6
  -8   6   2 118.013 6.56072   6
   8   6  -2 135.369 9.67321   6
   8   6  -2 110.384 10.8583   4
  -8   6   2 133.048 9.89062   4
   6  -6  -2 105.585 9.89148   5
   6  -6  -2 94.5879 8.70265   4
  -6  -6   2 91.9793 8.20479   6
  -6  -6   2 112.132 7.61408   3
  -6  -6   2 95.2349 8.37699   4
   6  -6  -2 109.949 7.42056   2
   6  -6  -2 100.992 4.57594   3
  -6  -6   2 108.634 9.87649   6
  -6   6   2 100.113 6.91777   6
   6   6  -2 99.9882 9.05969   4
   6   6  -2 105.806 8.62655   6
  -6   6   2 97.8576 6.35677   6
  -6   6   2 93.9919 8.41102   5
   6   6  -2 94.5204 7.14858   5
   6   6  -2 108.755 7.33189   3
  -6   6   2 102.284 9.70919   4
   4  -6  -2 227.251 11.4845   4
   4  -6  -2 226.351 7.01643   3
  -4  -6   2 232.346 9.26647   3
  -4  -6   2 232.202 9.80832   6
  -4  -6   2 246.507 11.8098   4
   4  -6  -2 210.644 11.4363   5
  -4  -6   2 239.780 10.0710   6
   4   6  -2 224.666 11.3713   4
  -4   6   2 207.322 12.3037   5
  -4   6   2 234.917 12.2791   4
   4   6  -2 215.212 11.6482   1
   4   6  -2 203.991 8.65228   3
   4   6  -2 215.214 10.2363   6
   4   6  -2 227.859 10.9231   6
   4   6  -2 231.452 10.0162   5
  -4   6   2 216.415 9.53627   6
  -2  -6   2 16.7866 4.54358   6
  -2  -6   2 19.3502 6.29912   4
   2  -6  -2 18.3400 3.83315   6
   2  -6  -2 19.8778 4.24809   6
  -2  -6   2 22.8246 3.60788   3
   2  -6  -2 14.4868 5.18207   4
  -2  -6   2 15.3883 5.35071   2
  -2  -6   2 14.4844 3.64717   6
  -2   6   2 9.50723 4.77192   5
   2   6  -2 13.0867 4.65121   6
   2   6  -2 17.9619 5.46157   4
   2   6  -2 17.9750 5.82909   1
   2   6  -2 19.8479 5.12102   3
  -2   6   2 28.3270 5.54173   6
  -2   6   2 19.2339 5.83963   4
   2   6  -2 18.6253 5.29428   5
   2   6  -2 19.6334 5.44119   6
   0  -6   2 698.575 19.1443   4
   0  -6   2 699.897 20.0784   2
   0  -6  -2 695.549 18.0432   5
   0  -6  -2 684.113 17.7955   6
   0  -6  -2 667.792 19.7839   4
   0  -6  -2 675.573 17.6791   6
   0   6   2 673.716 18.7984   6
   0   6  -2 707.030 21.2663   1
   0   6   2 668.951 20.3065   4
   0   6  -2 710.906 19.8577   4
   0   6  -2 673.655 19.3438   5
   0   6  -2 660.184 16.9492   6
   0   6   2 656.866 17.5020   5
   0   6  -2 661.815 13.7744   3
   0   6   2 661.869 18.7599   6
   0   6  -2 696.003 17.3851   6
  -2  -6  -2 32.3058 6.65556   4
  -2  -6  -2 37.4177 5.94278   6
   2  -6   2 28.4381 5.57124   2
   2  -6   2 28.3069 5.43922   4
  -2  -6  -2 30.8423 6.03515   6
  -2  -6  -2 37.1107 5.42361   5
  -2   6  -2 33.2015 4.63497   6
  -2   6  -2 23.8482 6.55918   1
  -2   6  -2 29.9382 6.11388   5
   2   6   2 47.2051 9.14468   6
   2   6   2 30.5137 6.02259   6
   2   6   2 36.6942 7.14121   4
  -2   6  -2 39.0112 4.58615   6
   2   6   2 39.0239 5.19428   5
  -2   6  -2 30.2399 2.81841   3
   4  -6   2 16.3451 4.89710   4
   4  -6   2 23.3652 6.35851   2
  -4  -6  -2 19.6541 6.04015   6
  -4  -6  -2 23.0050 6.32459   4
  -4  -6  -2 20.6901 4.17684   5
  -4  -6  -2 16.6519 5.96554   6
  -4   6  -2 20.7671 3.17033   6
   4   6   2 17.1396 5.77865   6
   4   6   2 16.6676 5.54228   6
  -4   6  -2 16.5395 2.53341   3
  -4   6  -2 15.1305 5.14305   2
  -4   6  -2 20.2639 3.05149   6
  -4   6  -2 10.7552 5.76989   1
   4   6   2 23.7676 6.57988   4
   6  -6   2 120.676 8.54229   4
   6  -6   2 110.710 9.78390   2
  -6  -6  -2 105.709 10.0466   6
  -6  -6  -2 130.104 5.63805   5
  -6  -6  -2 137.082 15.7671   6
  -6  -6  -2 118.107 9.83831   3
   6   6   2 118.776 9.22806   6
  -6   6  -2 124.614 11.4732   1
   6   6   2 122.796 10.5046   4
  -6   6  -2 120.906 5.76866   3
   6   6   2 108.750 9.16423   6
  -6   6  -2 131.004 9.20092   4
   6   6   2 102.434 9.39585   6
   6   6   2 122.400 9.23480   1
  -6   6  -2 108.603 5.54526   3
  -8  -6  -2 166.308 12.2517   3
  -8  -6  -2 149.390 13.9446   6
   8  -6   2 147.059 11.2072   2
  -8   6  -2 144.749 9.83564   4
  -8   6  -2 154.050 12.3083   1
   8   6   2 154.542 9.94956   1
   8   6   2 124.822 8.53009   6
  -8   6  -2 153.729 7.79430   3
   8   6   2 143.813 9.25518   6
   8   6   2 148.520 11.6051   4
  10  -6   2 190.344 12.6876   2
 -10  -6  -2 182.614 13.7192   3
  10   6   2 169.614 10.1164   1
  10   6   2 165.857 8.51914   6
 -10   6  -2 167.481 9.05292   3
 -10   6  -2 183.687 13.0310   1
  10   6   2 178.307 8.66597   6
 -10   6  -2 193.097 10.9400   4
 -12  -6  -2 18.0588 8.05660   3
  12  -6   2 18.0451 7.30144   2
 -12   6  -2 9.49224 5.21963   4
 -12   6  -2 13.9741 5.17109   3
  12   6   2 8.80368 4.29694   1
 -12   6  -2 11.9248 6.75934   1
 -14  -6  -2 29.1328 9.07569   3
  14  -6   2 21.5873 7.54434   2
 -14   6  -2 12.5458 5.21445   3
  14   6   2 12.8594 4.03718   1
 -14   6  -2 2.40047 4.70324   4
 -16  -6  -2 5.82114 7.68124   3
 -16  -6  -2 9.63914 7.26740   6
  16  -6   2 17.9872 8.37866   2
 -16   6  -2 21.6730 6.34795   1
 -16   6  -2 21.9579 5.95725   4
 -16   6  -2 13.9500 5.22949   3
 -19  -7   2 2.47243 6.58533   6
 -19  -7   2 5.20483 7.40731   3
  19  -7  -2 5.66775 8.45922   5
 -19   7   2 -14.147 5.15583   4
 -19   7   2 -9.6516 4.64126   1
 -19   7   2 -3.9889 3.93166   3
  17  -7  -2 164.925 14.8472   5
 -17  -7   2 136.380 12.4865   6
  17  -7  -2 135.949 10.9168   2
 -17  -7   2 147.677 14.7162   3
 -17   7   2 137.339 13.0535   4
 -17   7   2 140.750 9.23484   3
  15  -7  -2 211.774 12.1118   2
  15  -7  -2 217.243 14.3067   5
 -15  -7   2 231.066 15.7182   3
 -15  -7   2 228.141 14.8433   6
 -15   7   2 194.176 9.75715   3
  15   7  -2 228.868 10.2009   6
  15   7  -2 223.055 9.11141   1
  15   7  -2 206.219 10.1146   6
  15   7  -2 231.337 10.1613   6
 -15   7   2 212.381 14.6411   4
 -13  -7   2 264.517 14.8651   6
  13  -7  -2 256.268 12.0584   2
 -13  -7   2 256.062 15.1768   3
  13  -7  -2 233.629 14.8540   5
 -13   7   2 246.943 17.2649   4
  13   7  -2 237.764 11.0660   1
  13   7  -2 238.482 11.8811   6
  13   7  -2 226.245 8.71047   5
 -13   7   2 241.960 9.35984   3
 -11  -7   2 32.6707 7.78415   6
 -11  -7   2 46.0058 8.27291   3
  11  -7  -2 40.3525 8.63887   5
  11  -7  -2 42.6007 6.72277   2
 -11  -7   2 54.7811 8.47416   6
  11   7  -2 46.6158 7.32709   6
 -11   7   2 34.8892 8.04725   4
  11   7  -2 37.3388 4.89000   5
  11   7  -2 32.0399 6.79055   6
 -11   7   2 56.4782 5.01319   6
 -11   7   2 44.3788 4.76896   3
  -9  -7   2 71.6657 8.50472   6
  -9  -7   2 78.1481 8.83071   6
   9  -7  -2 73.2474 7.57144   2
  -9  -7   2 84.3339 9.48724   3
   9  -7  -2 68.0082 9.56499   5
   9   7  -2 82.7754 8.73927   6
   9   7  -2 93.4476 10.4246   4
  -9   7   2 78.3199 6.54537   6
   9   7  -2 79.5113 7.01159   5
   9   7  -2 77.8568 9.36118   1
   9   7  -2 91.2350 10.0343   6
  -9   7   2 84.3876 10.1129   4
   7  -7  -2 970.492 27.0575   5
   7  -7  -2 996.329 24.7461   2
  -7  -7   2 988.952 25.4404   6
  -7  -7   2 1021.58 25.5529   6
  -7  -7   2 1003.83 26.8056   3
   7   7  -2 997.762 28.1432   4
   7   7  -2 1012.71 26.7674   1
   7   7  -2 991.958 25.9301   6
   7   7  -2 964.775 23.0978   5
   7   7  -2 952.262 25.4451   6
  -7   7   2 960.660 22.6518   6
  -7   7   2 1030.62 28.0278   4
  -5  -7   2 2237.20 44.7531   6
   5  -7  -2 2264.21 38.8070   3
  -5  -7   2 2225.65 44.3980   6
  -5  -7   2 2283.21 43.9501   3
   5  -7  -2 2246.18 45.2156   2
   5  -7  -2 2285.85 47.8600   5
   5   7  -2 2291.19 48.6150   4
  -5   7   2 2255.46 48.6822   4
   5   7  -2 2303.83 48.2739   1
   5   7  -2 2254.63 44.7845   5
  -5   7   2 2277.95 49.6847   6
  -3  -7   2 241.668 9.75874   6
   3  -7  -2 257.852 12.5834   5
  -3  -7   2 245.169 9.68564   6
   3  -7  -2 229.897 7.14647   6
   3  -7  -2 242.425 7.26571   6
  -3  -7   2 248.637 8.98417   3
  -3  -7   2 244.433 13.7189   4
   3  -7  -2 243.329 7.78512   3
   3   7  -2 257.347 8.86268   3
   3   7  -2 244.089 11.3092   6
  -3   7   2 230.524 11.7113   6
   3   7  -2 249.125 13.6997   1
   3   7  -2 232.469 13.0768   4
  -3   7   2 216.980 11.4283   5
  -3   7   2 233.637 13.4948   4
   3   7  -2 243.487 11.3388   5
   3   7  -2 247.886 12.0831   6
  -1  -7   2 25.4544 3.28128   3
   1  -7  -2 26.0136 6.12932   5
  -1  -7   2 11.7113 5.50367   4
   1  -7  -2 14.3610 3.76261   6
  -1  -7   2 22.1727 6.40065   2
   1  -7  -2 30.4800 5.38027   6
   1   7  -2 32.6799 7.03517   4
  -1   7   2 26.9375 6.32053   6
   1   7  -2 34.0760 6.71917   5
  -1   7   2 22.0217 7.01236   4
   1   7  -2 21.7648 6.18126   1
  -1   7   2 22.3597 5.92488   6
   1   7  -2 27.8025 5.65490   6
  -1  -7  -2 229.377 11.4128   6
  -1  -7  -2 234.388 11.0880   5
   1  -7   2 239.212 12.6445   2
   1  -7   2 241.428 11.7611   4
  -1  -7  -2 228.663 10.9852   6
  -1   7  -2 240.576 13.4876   1
   1   7   2 224.022 12.2311   6
   1   7   2 237.874 12.6193   4
   1   7   2 245.927 10.5333   5
  -1   7  -2 238.531 12.4027   4
  -1   7  -2 244.345 10.4857   6
   1   7   2 265.230 16.5934   6
  -3  -7  -2 128.287 9.96922   6
   3  -7   2 143.767 9.60879   4
   3  -7   2 137.983 10.8085   2
  -3  -7  -2 150.596 8.38084   5
  -3  -7  -2 132.863 10.4040   6
   3   7   2 125.537 7.99858   5
   3   7   2 121.212 10.2814   6
   3   7   2 126.964 11.2565   4
   3   7   2 118.704 10.5719   6
  -3   7  -2 131.242 9.99426   4
  -3   7  -2 131.883 12.0381   1
  -3   7  -2 128.258 7.46014   6
  -5  -7  -2 204.637 12.3831   6
  -5  -7  -2 194.601 11.6324   3
  -5  -7  -2 200.416 8.62072   5
   5  -7   2 188.376 11.1105   4
  -5  -7  -2 201.439 12.5757   6
   5  -7   2 209.440 12.6220   2
   5   7   2 197.461 11.6885   1
   5   7   2 215.919 13.3898   4
   5   7   2 190.092 11.7277   6
  -5   7  -2 206.433 14.2768   1
  -5   7  -2 201.826 7.78807   6
   5   7   2 197.213 11.7163   6
  -5   7  -2 221.784 12.2101   4
  -7  -7  -2 10.7122 6.32668   6
   7  -7   2 8.66572 5.49094   2
  -7  -7  -2 -2.2728 5.26312   3
  -7  -7  -2 1.54086 6.42595   6
   7  -7   2 10.5205 4.78764   4
   7   7   2 2.78783 5.24795   6
   7   7   2 3.61515 6.33504   4
   7   7   2 4.88003 5.35888   6
  -7   7  -2 6.56697 2.38480   3
  -7   7  -2 5.01435 6.79065   1
   7   7   2 9.09575 5.72341   6
  -7   7  -2 11.9848 5.65689   4
  -7   7  -2 6.98953 2.41165   3
   7   7   2 1.94020 5.17182   1
   9  -7   2 10.9275 6.37921   2
  -9  -7  -2 20.7623 6.87886   3
  -9  -7  -2 11.5730 6.93452   6
  -9   7  -2 22.8408 3.77531   3
   9   7   2 17.6083 5.71024   6
  -9   7  -2 23.2708 6.08931   4
  -9   7  -2 11.4214 7.34327   1
  -9   7  -2 22.0768 3.54616   3
   9   7   2 27.5853 6.23952   1
   9   7   2 30.5532 7.74181   4
   9   7   2 22.7352 5.37499   6
 -11  -7  -2 51.2584 9.28180   6
  11  -7   2 58.5862 9.00818   2
 -11  -7  -2 53.3504 9.66458   3
  11   7   2 53.2329 6.10202   6
 -11   7  -2 55.2123 6.30473   3
 -11   7  -2 41.7077 8.51956   1
  11   7   2 53.1012 6.00282   6
 -11   7  -2 50.6405 7.59185   4
 -13  -7  -2 66.1691 10.1793   3
 -13  -7  -2 78.6256 10.7961   6
  13  -7   2 77.0214 10.4787   2
  13   7   2 61.0467 6.70333   1
 -13   7  -2 71.9468 8.77530   4
 -13   7  -2 67.9459 10.1558   1
 -13   7  -2 80.6066 7.68251   3
 -15  -7  -2 30.2928 8.49618   6
 -15  -7  -2 28.5602 9.42473   3
  15  -7   2 39.8122 9.20971   2
 -15   7  -2 29.1136 6.20985   3
 -15   7  -2 26.5990 6.63019   4
 -15   7  -2 38.6903 8.33397   1
  18  -8  -2 35.4193 7.09501   2
 -18  -8   2 25.2516 9.25285   3
 -18  -8   2 55.4475 10.9482   6
 -18   8   2 37.8909 8.36091   1
 -18   8   2 40.7504 9.45953   4
 -18   8   2 30.2138 5.37130   3
  16  -8  -2 39.1145 6.99982   2
  16  -8  -2 43.3371 10.3166   5
 -16  -8   2 49.3131 14.1514   6
 -16  -8   2 42.1196 9.04078   3
  16   8  -2 45.1031 5.16869   1
  16   8  -2 45.8050 6.18236   6
 -16   8   2 35.6980 4.88504   3
  16   8  -2 49.2285 6.00802   6
  16   8  -2 30.7016 5.23639   1
  16   8  -2 41.6515 6.16603   6
 -16   8   2 62.1534 10.1650   4
  14  -8  -2 10.5592 5.49609   2
 -14  -8   2 10.4566 6.85712   6
 -14  -8   2 0.95070 6.65063   3
  14  -8  -2 12.1143 7.93809   5
 -14   8   2 0.26142 2.74412   3
 -14   8   2 -8.7874 5.84726   4
  14   8  -2 3.76986 4.52986   6
  14   8  -2 2.91349 6.84443   1
  14   8  -2 2.00834 5.36210   6
 -12  -8   2 147.503 12.5940   3
 -12  -8   2 148.617 12.8696   6
  12  -8  -2 177.792 11.1766   2
  12  -8  -2 157.825 13.7725   5
 -12  -8   2 172.002 19.3741   6
  12   8  -2 160.821 11.5660   6
  12   8  -2 165.644 11.3109   6
 -12   8   2 166.886 13.6263   4
  12   8  -2 167.044 7.26911   5
 -12   8   2 164.097 7.75476   6
  12   8  -2 168.663 11.3528   1
 -10  -8   2 922.349 26.4222   6
 -10  -8   2 907.618 25.8836   6
  10  -8  -2 898.356 28.1692   5
 -10  -8   2 945.038 26.2760   3
  10  -8  -2 909.008 24.6813   2
  10   8  -2 923.937 21.5626   5
  10   8  -2 928.626 25.4823   6
 -10   8   2 873.083 21.4814   6
  10   8  -2 966.064 26.1613   1
  -8  -8   2 1101.55 28.5232   6
   8  -8  -2 1125.90 27.7562   2
  -8  -8   2 1188.51 28.6008   3
   8  -8  -2 1088.12 30.7463   5
  -8  -8   2 1083.24 28.2354   6
   8   8  -2 1081.15 30.6846   4
   8   8  -2 1097.16 29.2005   6
   8   8  -2 1140.74 26.2416   5
  -8   8   2 1129.31 25.9852   6
  -8   8   2 1113.57 31.2300   4
   8   8  -2 1154.59 30.2767   1
   8   8  -2 1113.14 29.1780   6
  -6  -8   2 712.556 19.8402   3
   6  -8  -2 706.074 20.4438   2
   6  -8  -2 705.286 23.0563   5
  -6  -8   2 706.379 20.2274   6
  -6  -8   2 706.668 20.2844   6
   6   8  -2 733.978 24.3756   4
   6   8  -2 700.181 21.9174   6
   6   8  -2 696.711 19.8655   5
  -6   8   2 696.393 22.0097   6
   6   8  -2 697.973 21.6205   6
  -6   8   2 711.978 23.8859   4
   6   8  -2 732.451 23.7066   1
  -4  -8   2 127.061 7.79428   3
  -4  -8   2 124.115 8.11485   6
  -4  -8   2 136.551 8.76412   6
   4  -8  -2 131.879 4.71404   3
   4  -8  -2 129.616 9.68449   2
   4  -8  -2 135.370 11.3054   5
  -4   8   2 125.534 11.1647   4
   4   8  -2 108.815 11.9258   4
   4   8  -2 127.927 9.76026   5
   4   8  -2 126.961 10.9464   1
  -4   8   2 119.194 10.5328   6
   2  -8  -2 358.999 10.8558   6
  -2  -8   2 353.226 10.2544   3
   2  -8  -2 355.640 11.9246   3
  -2  -8   2 375.857 16.5024   2
   2  -8  -2 358.331 15.3131   5
  -2  -8   2 361.133 10.0835   6
  -2  -8   2 357.644 10.0678   6
   2  -8  -2 348.353 10.4668   3
   2  -8  -2 370.791 11.0801   6
   2   8  -2 362.106 17.3877   1
   2   8  -2 380.859 15.2607   6
  -2   8   2 372.333 16.5782   4
  -2   8   2 336.476 14.9632   6
   2   8  -2 330.536 15.8731   4
   0  -8  -2 379.243 12.5079   3
   0  -8  -2 393.347 14.8284   5
   0  -8   2 394.423 16.8299   2
   0  -8  -2 387.965 13.7319   6
   0   8  -2 389.950 18.2099   1
   0   8  -2 393.333 14.7547   6
   0   8   2 399.576 17.9728   6
   0   8  -2 398.457 16.6949   4
   0   8   2 377.761 17.5704   4
   0   8   2 355.424 18.9647   6
   0   8   2 384.541 14.3983   5
  -2  -8  -2 40.4933 7.13552   6
   2  -8   2 50.8969 8.33855   2
  -2  -8  -2 47.9560 7.72064   6
  -2  -8  -2 37.2300 5.84984   3
  -2  -8  -2 59.2757 7.23278   5
  -2   8  -2 46.6813 6.69246   6
   2   8   2 50.8198 8.25625   6
   2   8   2 40.4175 7.50115   6
  -2   8  -2 30.7092 8.47771   1
   2   8   2 41.2158 8.55081   4
   2   8   2 45.3818 6.43509   5
  -2   8  -2 40.8719 7.72014   4
  -4  -8  -2 80.0171 9.08178   6
  -4  -8  -2 76.6253 7.67619   5
  -4  -8  -2 81.7465 8.53031   3
   4  -8   2 104.156 10.6018   2
  -4  -8  -2 84.8065 9.66308   6
   4   8   2 74.9697 9.57002   6
  -4   8  -2 65.3622 9.55238   1
   4   8   2 69.9453 8.81485   6
  -4   8  -2 76.4028 7.12344   6
   4   8   2 79.7846 9.59133   4
   4   8   2 81.2087 7.41427   5
  -4   8  -2 89.4097 9.95958   4
  -6  -8  -2 20.4358 6.23442   3
  -6  -8  -2 24.6443 7.41043   6
   6  -8   2 18.0499 6.91261   2
  -6  -8  -2 22.7465 6.53663   6
   6   8   2 14.1332 8.12196   6
   6   8   2 21.9975 6.72074   6
   6   8   2 20.2768 7.30436   4
  -6   8  -2 29.3244 6.93767   4
   6   8   2 20.7346 6.81798   6
  -6   8  -2 19.5778 8.55641   1
  -6   8  -2 22.9131 4.65446   6
   8  -8   2 240.409 16.3075   2
  -8  -8  -2 233.709 14.7173   6
  -8  -8  -2 240.083 14.3745   3
  -8   8  -2 255.963 13.4880   4
  -8   8  -2 234.592 16.2246   1
  -8   8  -2 224.046 7.73166   6
   8   8   2 236.813 12.4852   6
   8   8   2 238.765 12.4652   6
   8   8   2 224.731 12.7692   6
   8   8   2 258.859 15.7655   4
  10  -8   2 38.9261 8.25900   2
 -10  -8  -2 31.1445 8.88427   6
 -10  -8  -2 28.9107 7.63792   3
 -10   8  -2 33.7904 3.89689   3
 -10   8  -2 31.0917 3.55576   3
  10   8   2 35.7703 9.39391   4
 -10   8  -2 24.5049 8.26743   1
 -10   8  -2 22.6973 6.90380   4
  10   8   2 32.4148 6.41075   6
 -12  -8  -2 -6.9687 6.07615   3
  12  -8   2 8.16098 6.55391   2
 -12  -8  -2 -2.0566 6.42288   6
 -12   8  -2 0.09876 3.16489   3
  12   8   2 -2.0308 4.30306   6
 -12   8  -2 -6.0791 2.69647   3
 -12   8  -2 -3.7585 6.15285   1
 -12   8  -2 6.87685 5.32456   4
 -14  -8  -2 -3.0807 7.24327   3
  14  -8   2 1.25451 6.57243   2
 -14  -8  -2 11.2391 7.92977   6
 -14   8  -2 7.94456 6.54959   4
 -14   8  -2 8.12666 7.13847   1
  15  -9  -2 3.02069 7.92354   5
  15  -9  -2 6.09968 5.49206   2
 -15  -9   2 12.9825 7.35280   6
 -15  -9   2 19.8125 8.57908   3
 -15   9   2 6.65181 7.50587   4
  15   9  -2 14.9569 7.65600   6
  15   9  -2 1.84048 5.22226   6
  15   9  -2 5.23849 4.78582   1
 -13  -9   2 83.6153 10.4076   6
  13  -9  -2 85.6265 9.48946   2
 -13  -9   2 73.2028 10.5081   3
  13  -9  -2 74.0082 12.1936   5
  13   9  -2 80.9930 9.69316   6
 -13   9   2 90.1597 6.90471   6
 -13   9   2 77.2729 11.0519   4
  13   9  -2 111.574 10.1062   6
  13   9  -2 95.9688 5.86528   5
  13   9  -2 95.4849 10.0131   1
 -11  -9   2 62.6600 9.43952   6
 -11  -9   2 61.6866 9.25060   3
  11  -9  -2 45.7145 7.51574   2
  11  -9  -2 53.6568 10.0720   5
  11   9  -2 64.1892 6.51615   5
 -11   9   2 54.9789 6.52158   6
 -11   9   2 56.0057 9.98873   4
  11   9  -2 67.2214 9.18457   6
  11   9  -2 59.3566 8.24893   1
  11   9  -2 58.7661 8.88943   6
  -9  -9   2 -4.3360 4.99264   3
  -9  -9   2 -0.9460 5.79226   6
   9  -9  -2 1.37964 5.11245   2
  -9  -9   2 1.67569 5.50770   6
   9  -9  -2 1.27649 6.54191   5
   9   9  -2 10.3239 5.90031   6
   9   9  -2 12.0285 8.86672   6
   9   9  -2 21.9883 7.87471   5
  -9   9   2 -1.4944 6.98208   4
   9   9  -2 -3.3099 6.61333   4
   9   9  -2 5.11033 6.12201   1
  -9   9   2 6.25957 4.82354   6
  -7  -9   2 48.3804 7.11725   6
  -7  -9   2 50.9744 7.69228   6
  -7  -9   2 39.3867 6.71162   3
   7  -9  -2 48.2411 9.61773   5
   7  -9  -2 30.4475 6.93620   2
   7   9  -2 36.9697 6.36983   5
   7   9  -2 25.9572 7.68457   1
   7   9  -2 43.0971 8.36402   6
  -7   9   2 47.9092 10.3051   6
   7   9  -2 44.2183 9.04603   4
  -7   9   2 47.2375 9.25889   4
   7   9  -2 42.7663 7.76624   6
  -5  -9   2 154.227 8.88646   3
   5  -9  -2 153.387 11.4756   2
  -5  -9   2 101.228 11.2763   6
   5  -9  -2 143.505 12.4284   5
  -5  -9   2 157.395 9.99444   6
   5   9  -2 149.558 13.0778   6
  -5   9   2 150.639 13.3790   4
  -5   9   2 144.514 11.3740   6
   5   9  -2 138.268 12.9677   1
  -3  -9   2 40.0225 4.84885   3
   3  -9  -2 40.6731 3.56484   3
   3  -9  -2 42.6373 8.52906   5
   3  -9  -2 40.0294 3.67116   3
  -3  -9   2 53.9187 6.33224   6
  -3  -9   2 42.4690 12.1525   2
  -3  -9   2 41.1705 5.28844   6
  -3   9   2 48.7999 16.1710   4
   3   9  -2 47.3704 8.96209   4
   3   9  -2 55.4957 9.64776   1
  -3   9   2 52.9203 8.41662   6
  -1  -9   2 63.5361 9.71575   2
   1  -9  -2 48.8730 8.18170   5
   1  -9  -2 60.5321 6.89317   6
   1  -9  -2 56.0895 5.35078   3
   1  -9  -2 51.9971 5.23755   3
   1  -9  -2 58.7715 6.76224   6
   1   9  -2 65.9246 8.66580   6
  -1   9   2 54.9866 8.77841   6
   1   9  -2 58.9249 9.46630   4
   1   9  -2 48.0449 9.65525   1
   1  -9   2 12.6082 7.01104   2
  -1  -9  -2 0.30682 3.92476   3
  -1  -9  -2 6.91458 5.84200   5
  -1  -9  -2 -2.6162 4.99101   6
  -1   9  -2 6.08213 5.52637   6
   1   9   2 -4.7994 6.29542   6
  -1   9  -2 14.2500 7.32419   4
   1   9   2 3.92210 5.47336   5
  -1   9  -2 4.23369 6.85750   1
   1   9   2 1.86604 6.91391   4
  -3  -9  -2 326.146 16.5875   6
  -3  -9  -2 347.187 15.2681   6
  -3  -9  -2 354.011 14.1555   3
  -3  -9  -2 340.170 13.5166   5
  -3   9  -2 342.072 16.6055   4
  -3   9  -2 335.918 13.8026   6
   3   9   2 312.394 12.8044   5
   3   9   2 319.729 15.6492   6
  -3   9  -2 333.349 18.7726   1
   3   9   2 332.273 16.5610   6
   3   9   2 348.412 18.1753   4
  -5  -9  -2 101.613 9.85486   3
  -5  -9  -2 111.603 10.6796   6
  -5  -9  -2 100.300 11.7439   6
   5  -9   2 92.3601 11.0500   2
  -5   9  -2 103.552 12.5275   1
   5   9   2 100.312 10.7617   6
   5   9   2 114.774 12.0167   4
  -5   9  -2 104.990 10.8471   4
  -5   9  -2 96.9986 8.37648   6
   5   9   2 107.851 12.4933   6
  -7  -9  -2 99.2855 11.1920   6
  -7  -9  -2 95.1503 10.5276   3
   7  -9   2 88.5090 11.1160   2
  -7  -9  -2 81.7071 10.6153   6
  -7   9  -2 98.1521 7.40498   6
   7   9   2 72.1982 9.59859   6
  -7   9  -2 97.7678 10.7002   4
   7   9   2 93.7382 11.7300   4
   7   9   2 114.936 11.0224   6
  -7   9  -2 104.287 12.2264   1
   7   9   2 73.4436 9.50578   6
  -9  -9  -2 44.8590 9.67494   6
   9  -9   2 37.4804 8.44295   2
  -9  -9  -2 29.3692 7.99709   3
   9   9   2 48.0746 9.98882   4
   9   9   2 44.2607 7.61288   6
  -9   9  -2 64.5728 5.54171   6
  -9   9  -2 32.2029 9.77768   1
   9   9   2 39.0249 7.78785   6
   9   9   2 48.3953 7.47967   6
  -9   9  -2 61.0195 8.76664   4
 -11  -9  -2 50.3626 9.54746   6
  11  -9   2 52.2930 9.74555   2
 -11  -9  -2 40.9826 9.11183   3
 -11   9  -2 53.3852 10.9689   1
  11   9   2 47.3607 10.2041   4
  11   9   2 40.7241 7.13998   6
 -11   9  -2 56.3604 9.94815   4
  11   9   2 46.1977 6.92295   6
  13  -9   2 128.050 13.9087   2
 -13  -9  -2 143.898 14.1407   6
 -13  -9  -2 85.5094 11.5366   3
  13   9   2 123.316 7.65052   6
 -13   9  -2 125.594 11.5926   4
  13   9   2 132.906 7.93185   6
 -13   9  -2 134.634 14.8653   1
 -14 -10   2 -0.1394 6.55205   6
  14 -10  -2 -8.5282 7.99412   5
  14 -10  -2 -8.3300 5.62612   2
 -14 -10   2 14.9761 7.28958   3
  14  10  -2 11.1499 6.59265   6
  14  10  -2 -9.2601 4.46584   1
 -14  10   2 4.71512 7.66696   4
  12 -10  -2 16.2888 6.22091   2
 -12 -10   2 11.8882 7.16440   3
 -12 -10   2 12.3677 7.71707   6
  12 -10  -2 3.13669 8.34688   5
 -12 -10   2 30.1755 7.04794   6
  12  10  -2 12.7651 8.02614   6
 -12  10   2 13.1117 8.29909   4
  12  10  -2 6.54577 6.03591   1
  12  10  -2 5.24454 5.24688   5
  12  10  -2 12.5236 6.89046   6
 -10 -10   2 35.9493 7.13478   6
  10 -10  -2 35.1149 7.27210   2
  10 -10  -2 36.6441 10.3187   5
 -10 -10   2 18.2464 6.37882   3
 -10 -10   2 27.7183 8.12248   6
  10  10  -2 41.5225 8.72318   6
  10  10  -2 39.1335 9.65148   4
  10  10  -2 28.0027 7.30237   1
 -10  10   2 21.0096 9.35644   4
  10  10  -2 27.3514 5.47492   5
 -10  10   2 30.7797 6.35035   6
   8 -10  -2 14.9707 7.60549   5
   8 -10  -2 3.87222 5.82337   2
  -8 -10   2 -1.1579 5.10876   3
  -8 -10   2 -6.5208 5.27498   6
  -8 -10   2 6.47863 5.40676   6
   8  10  -2 -5.6905 6.00343   1
  -8  10   2 9.74665 7.48377   4
   8  10  -2 7.78126 7.06332   4
   8  10  -2 -3.2420 6.30278   6
   6 -10  -2 30.1438 7.21826   2
   6 -10  -2 51.4083 9.45847   5
  -6 -10   2 40.6469 6.30434   3
  -6 -10   2 35.6454 6.65419   6
   6  10  -2 40.0469 8.77029   6
  -6  10   2 45.1385 8.06422   6
   6  10  -2 35.5592 8.81449   4
   6  10  -2 28.5374 9.30194   1
  -6  10   2 39.0789 8.77081   4
  -4 -10   2 264.572 15.5066   2
   4 -10  -2 278.844 14.5920   2
  -4 -10   2 279.867 10.5616   6
   4 -10  -2 275.362 15.8362   5
  -4 -10   2 272.631 10.2417   3
  -4 -10   2 260.380 10.7971   6
   4  10  -2 272.975 16.8469   4
  -4  10   2 281.511 14.7731   6
   4  10  -2 273.314 15.4894   6
   4  10  -2 283.823 17.9275   1
  -4  10   2 259.641 15.9928   4
   2 -10  -2 141.546 5.72904   3
   2 -10  -2 140.039 6.30900   3
  -2 -10   2 143.966 5.39615   3
   2 -10  -2 138.927 12.0241   5
  -2 -10   2 146.036 13.0578   2
   2  10  -2 152.174 13.4277   4
   2  10  -2 132.479 12.2975   6
  -2  10   2 140.341 11.9608   6
   2  10  -2 110.004 12.7266   1
  -2  10   2 133.641 13.6954   4
   0 -10  -2 43.6163 5.13609   3
   0 -10  -2 54.8204 6.24721   6
   0 -10  -2 49.4997 5.51033   3
   0 -10  -2 65.4091 8.96652   5
   0 -10   2 65.1289 9.51069   2
   0 -10  -2 56.1719 6.65264   6
   0  10   2 63.7382 10.0449   6
   0  10  -2 49.8937 10.8796   1
   0  10   2 36.4237 8.15146   4
   0  10  -2 61.2784 10.3274   4
   0  10  -2 63.1087 8.78361   6
  -2 -10  -2 38.6287 7.62430   5
   2 -10   2 37.4764 8.56196   2
  -2 -10  -2 38.8349 6.82136   6
  -2 -10  -2 41.0608 6.35586   3
  -2  10  -2 40.4490 7.60829   6
   2  10   2 38.1208 9.14552   4
   2  10   2 54.2365 9.19560   6
  -2  10  -2 40.3566 8.96674   4
  -2  10  -2 38.0174 9.72634   1
  -4 -10  -2 8.70799 6.25127   6
   4 -10   2 22.5241 7.87546   2
  -4 -10  -2 15.3976 5.69931   3
  -4  10  -2 -0.0944 8.01402   1
   4  10   2 25.5691 8.13707   6
  -4  10  -2 2.20505 6.36675   4
   4  10   2 13.5624 7.14223   6
   4  10   2 11.5133 7.58974   4
  -4  10  -2 7.43257 5.40828   6
   4  10   2 12.6587 6.04241   5
   6 -10   2 64.2783 9.78633   2
  -6 -10  -2 56.4006 9.03451   6
  -6 -10  -2 51.7654 8.06820   3
  -6 -10  -2 59.2529 8.42576   6
  -6  10  -2 41.4048 10.0367   1
   6  10   2 57.8792 9.51771   6
   6  10   2 34.2570 9.52615   4
   6  10   2 52.5466 8.19219   6
  -6  10  -2 44.4543 9.23676   4
  -6  10  -2 78.7071 7.94425   6
  -8 -10  -2 50.1902 10.0581   6
   8 -10   2 39.2377 8.51891   2
  -8 -10  -2 41.9897 9.10186   3
  -8 -10  -2 44.2436 9.08504   6
   8  10   2 45.5444 8.89022   6
   8  10   2 53.1726 8.84894   6
  -8  10  -2 52.7282 9.34511   4
  -8  10  -2 62.9622 8.21516   6
   8  10   2 52.2725 8.21816   6
  -8  10  -2 41.6517 10.6507   1
   8  10   2 41.8074 10.2611   4
  10 -10   2 41.8899 9.03160   2
 -10 -10  -2 38.8686 8.86960   3
 -10 -10  -2 38.0931 9.68358   6
 -10  10  -2 25.8984 8.85505   1
  10  10   2 44.4270 9.90780   4
  10  10   2 41.0309 9.69869   6
 -10  10  -2 54.1301 8.85948   4
  11 -11  -2 23.7931 11.1852   5
  11 -11  -2 17.6278 6.27276   2
  11  11  -2 17.1296 7.87575   6
  11  11  -2 16.0164 7.39403   1
 -11  11   2 8.27666 8.96650   4
   9 -11  -2 20.5493 9.07494   5
  -9 -11   2 -2.1823 5.07324   3
   9 -11  -2 6.62032 6.15246   2
  -9 -11   2 3.65287 6.16354   6
   9  11  -2 10.1718 8.95159   4
  -9  11   2 10.1521 7.88044   4
   9  11  -2 2.26792 6.97702   6
  -9  11   2 7.07781 5.95800   6
   9  11  -2 -0.3763 7.03726   1
   7 -11  -2 80.0348 11.0704   5
  -7 -11   2 88.8197 9.71907   6
  -7 -11   2 61.9863 8.62954   6
   7 -11  -2 83.6554 9.86215   2
  -7 -11   2 74.8465 8.50332   3
  -7  11   2 75.7266 10.0236   6
   7  11  -2 49.3508 9.73522   4
   7  11  -2 95.3433 11.8930   6
  -7  11   2 57.6644 11.4655   4
   7  11  -2 70.5266 10.4448   1
   5 -11  -2 190.993 14.4643   5
  -5 -11   2 188.925 9.26068   3
  -5 -11   2 183.196 9.95389   6
   5 -11  -2 175.966 13.1650   2
  -5 -11   2 182.275 9.48517   6
  -5 -11   2 164.797 14.7659   2
   5  11  -2 185.221 15.9266   4
   5  11  -2 181.509 15.4197   1
   5  11  -2 207.252 14.4151   6
  -5  11   2 186.429 16.0136   4
  -5  11   2 195.063 13.9320   6
   3 -11  -2 77.3232 10.2854   2
  -3 -11   2 81.5116 4.93188   3
  -3 -11   2 90.3157 11.7999   2
   3 -11  -2 84.3715 11.3937   5
   3  11  -2 78.0811 11.9794   4
  -3  11   2 85.0485 12.8165   4
   3  11  -2 66.3309 9.66148   6
  -3  11   2 68.4493 9.96102   6
   3  11  -2 74.5498 11.2485   1
  -1 -11   2 24.9322 8.21268   2
   1 -11  -2 20.2969 3.11533   3
   1 -11  -2 26.2983 8.21365   5
  -1  11   2 13.2098 8.21465   4
  -1  11   2 30.2663 8.24806   6
   1  11  -2 35.1889 9.16532   4
   1  11  -2 27.8704 8.04780   6
   1  11  -2 27.9329 9.83413   1
  -1 -11  -2 -5.5352 4.46262   6
  -1 -11  -2 3.17470 5.91291   5
  -1 -11  -2 9.94989 4.24925   6
  -1 -11  -2 5.57645 3.84001   3
   1 -11   2 13.5201 7.24130   2
   1  11   2 5.56718 8.02188   4
   1  11   2 -1.8981 6.73429   6
  -1  11  -2 8.28626 7.46464   4
  -1  11  -2 5.40684 8.39252   1
  -1  11  -2 1.82667 6.40232   6
  -3 -11  -2 23.9756 5.67077   3
  -3 -11  -2 24.4781 6.81303   6
   3 -11   2 25.5455 8.83998   2
  -3  11  -2 16.6265 6.71564   6
  -3  11  -2 38.1144 10.4683   1
   3  11   2 18.3962 8.10628   6
  -3  11  -2 28.9016 8.19949   4
   3  11   2 9.02178 8.06401   4
   5 -11   2 97.4497 12.0265   2
  -5 -11  -2 98.8890 9.30438   3
  -5 -11  -2 107.315 11.4748   6
  -5  11  -2 89.2296 10.1594   6
  -5  11  -2 98.3638 11.6560   4
   5  11   2 108.404 12.7731   6
   5  11   2 89.8574 12.2502   4
  -5  11  -2 65.3017 11.6343   1
   7 -11   2 84.2161 11.7938   2
  -7 -11  -2 81.4392 13.5250   6
  -7 -11  -2 72.5261 16.0960   3
   7  11   2 77.9543 11.1836   6
  -7  11  -2 66.9230 10.1144   4
   6 -12  -2 3.77952 6.18917   2
  -6 -12   2 10.8543 5.02345   6
  -6 -12   2 6.84930 7.85949   6
   6 -12  -2 2.59962 8.12349   5
  -6 -12   2 6.54575 7.90769   2
   6  12  -2 9.82170 7.08017   6
  -6  12   2 -5.7562 10.5367   4
   6  12  -2 -3.3670 9.58209   4
   6  12  -2 -6.6134 7.19008   1
   4 -12  -2 24.2954 9.32598   5
   4 -12  -2 15.4722 7.04573   2
  -4 -12   2 3.55200 3.71852   3
  -4 -12   2 5.51858 10.9141   2
   4  12  -2 -4.7920 7.74135   1
  -4  12   2 10.6604 6.66667   6
   4  12  -2 9.80477 8.22145   4
   2 -12  -2 40.4105 8.74834   2
   2 -12  -2 50.0840 9.20664   5
  -2 -12   2 61.2641 10.7335   2
   2  12  -2 52.2799 9.22886   6
  -2  12   2 50.1048 9.58509   6
   2  12  -2 66.6013 12.1847   1
   2  12  -2 54.1928 10.7579   4
   0 -12  -2 34.0168 4.21238   3
   0 -12  -2 46.7409 8.69212   5
   0 -12   2 50.1853 9.97851   2
   0  12   2 35.4909 9.62395   6
   0  12  -2 37.4693 12.4908   1
   0  12  -2 37.4431 9.90160   4
   0  12  -2 37.8053 8.75223   6
   2 -12   2 28.2641 8.63017   2
  -2 -12  -2 28.3215 5.48287   6
  -2  12  -2 36.0421 8.69454   6
  -2  12  -2 21.8742 8.80206   4
   2  12   2 27.1122 8.51230   6
  -2  12  -2 12.1167 10.7044   1
   2  12   2 37.6714 9.08348   4
  -4 -12  -2 2.54400 5.34182   3
  -4 -12  -2 13.7136 6.52780   6
   4 -12   2 10.6262 9.03894   2
   4  12   2 9.40211 9.05163   4
  -4  12  -2 -0.3332 8.50138   1
  -4  12  -2 0.19955 7.33238   4
   4  12   2 15.9263 7.20945   6
 -24   0   3 -1.2208 12.3531   3
  24   0  -3 7.86965 4.86474   5
 -22   0   3 1.29714 3.31862   6
 -22   0   3 -1.3969 7.58104   3
  22   0  -3 6.50927 5.47005   5
 -20   0   3 1.32977 3.29096   6
 -20   0   3 -0.5129 6.17683   3
  20   0  -3 8.92476 5.49600   5
  18   0  -3 0.01514 5.04548   5
 -18   0   3 1.79858 4.08356   6
 -18   0   3 1.20248 4.14138   2
 -18   0   3 -7.3528 6.61543   3
  16   0  -3 4.31185 5.23270   5
 -16   0   3 -4.4015 3.28067   6
 -16   0   3 2.09125 4.21210   2
 -16   0   3 -0.3444 2.17670   1
 -16   0   3 2.53068 5.73107   3
 -14   0   3 1.77175 2.96781   6
 -14   0   3 -1.7490 3.04328   6
  14   0  -3 -0.2594 4.28847   5
 -14   0   3 5.54088 5.44068   3
 -14   0   3 0.14336 2.35632   1
  14   0  -3 -5.1886 3.88799   3
 -12   0   3 1.13930 3.10443   6
  12   0  -3 -0.7171 3.96139   5
 -12   0   3 -0.1209 2.58344   1
 -12   0   3 -2.8776 2.84742   6
 -12   0   3 -9.1631 4.04091   3
  10   0  -3 -3.0827 4.04317   5
 -10   0   3 0.91866 2.82165   6
 -10   0   3 2.81693 2.83109   1
  10   0  -3 -1.2072 3.53575   3
 -10   0   3 1.84194 4.16320   3
 -10   0   3 -1.8490 2.86812   6
   8   0  -3 -0.9524 3.58773   3
   8   0  -3 -0.7433 1.82987   6
  -8   0   3 -3.2377 2.70687   6
  -8   0   3 -6.7903 3.71531   3
   8   0  -3 0.55686 2.97485   1
  -8   0   3 0.33020 2.81576   1
  -8   0   3 2.79914 2.99924   6
   6   0  -3 -0.4531 3.24900   1
   6   0  -3 -0.1583 3.72892   3
  -6   0   3 -1.8263 3.94410   3
  -6   0   3 -3.1651 2.71995   6
   6   0  -3 -0.1389 2.66798   6
  -4   0   3 -2.3090 3.17920   6
  -4   0   3 4.35047 3.12136   6
  -4   0   3 1.20584 3.57897   1
   4   0  -3 -2.3005 2.95231   6
  -4   0   3 -1.8435 1.99462   2
   4   0  -3 -1.5927 3.28515   3
   4   0  -3 4.30713 2.14860   2
   4   0  -3 3.44107 2.99023   6
  -4   0   3 3.44154 3.53892   3
   4   0  -3 3.09091 3.62561   1
  -2   0   3 2.81354 3.10914   6
  -2   0   3 0.87124 2.57789   2
   2   0  -3 1.27414 2.98334   6
   2   0  -3 0.31056 3.77337   3
   2   0  -3 2.32562 3.27768   6
   2   0  -3 1.00180 2.51505   2
   2   0  -3 -0.3836 3.35027   1
  -2   0   3 1.36033 2.88024   6
  -2   0   3 3.27129 3.85778   3
  -2   0   3 3.10174 3.47409   1
   0   0   3 -1.2869 3.14265   1
   0   0   3 2.68839 1.69914   4
   0   0  -3 -3.2143 2.77667   6
   0   0   3 3.25267 3.18275   2
   0   0  -3 1.80080 3.86504   1
   0   0   3 -1.2322 2.25415   6
   0   0  -3 3.50532 3.13177   2
   0   0  -3 -0.7030 2.88466   6
   0   0   3 5.21871 2.69938   6
  -2   0  -3 -2.2661 2.46611   6
  -2   0  -3 1.69949 3.91826   1
  -2   0  -3 -0.6839 3.52179   2
   2   0   3 3.44306 3.23709   1
   2   0   3 -0.4337 3.61663   2
  -2   0  -3 12.4362 3.09177   6
  -4   0  -3 3.88616 3.83893   1
  -4   0  -3 0.30134 2.30831   6
  -4   0  -3 -0.0421 2.21040   6
   4   0   3 3.74165 3.72058   1
  -4   0  -3 -3.7297 3.32657   2
  -4   0  -3 0.52435 1.93652   4
  -6   0  -3 -0.6775 1.96577   6
  -6   0  -3 -0.6133 2.47532   4
   6   0   3 -2.3461 3.35600   1
  -6   0  -3 2.80590 3.75705   1
  -6   0  -3 -1.4671 3.35612   5
  -6   0  -3 4.54158 1.98999   6
  -8   0  -3 -1.2577 3.53137   5
  -8   0  -3 -3.1463 4.17160   2
  -8   0  -3 -1.2651 2.84145   4
   8   0   3 1.32685 3.56302   1
  -8   0  -3 0.84978 3.75100   1
 -10   0  -3 -0.0190 3.45597   4
  10   0   3 6.86257 3.95987   1
 -10   0  -3 -1.8878 3.71480   5
 -10   0  -3 7.42070 4.37149   1
  12   0   3 -0.1933 3.70093   1
 -12   0  -3 3.77929 4.06312   5
 -12   0  -3 -1.2159 4.26619   1
 -12   0  -3 -3.7088 3.65625   4
 -14   0  -3 9.76095 3.16768   6
 -14   0  -3 3.56582 4.09501   4
 -14   0  -3 4.14454 6.18969   3
 -14   0  -3 3.93397 3.87119   5
 -14   0  -3 5.65564 4.65729   1
 -16   0  -3 -1.1500 3.71648   5
 -16   0  -3 4.43399 4.44854   1
 -16   0  -3 -3.1910 7.18796   3
 -16   0  -3 9.15008 4.69214   4
 -18   0  -3 1.76167 7.74921   3
 -18   0  -3 -9.7901 3.70858   1
  23  -1  -3 90.6366 9.27861   5
 -23  -1   3 65.3095 11.1981   3
 -23   1   3 74.7343 11.7642   3
  23   1  -3 86.0677 8.26475   5
 -21  -1   3 31.4255 8.36852   3
 -21  -1   3 43.0802 6.16803   6
  21  -1  -3 34.3922 7.47296   5
 -21   1   3 34.5492 8.54098   3
  21   1  -3 44.9245 6.57894   5
 -21   1   3 41.3508 4.89587   6
 -19  -1   3 26.9915 8.90039   3
 -19  -1   3 12.6519 4.58593   6
  19  -1  -3 9.51726 5.99225   5
 -19   1   3 15.5585 11.6307   3
 -19   1   3 20.5581 2.95116   1
 -19   1   3 11.3072 3.66457   6
 -19   1   3 13.2892 2.76000   1
  19   1  -3 23.5354 5.48433   5
 -17  -1   3 63.5807 7.02030   6
 -17  -1   3 74.7067 10.8991   3
  17  -1  -3 66.3771 8.36643   5
 -17   1   3 79.6555 10.1068   3
  17   1  -3 88.8493 8.08928   5
 -17   1   3 76.6988 5.32468   6
 -15  -1   3 676.067 17.1710   6
  15  -1  -3 710.305 19.8671   5
 -15  -1   3 692.208 22.1909   3
 -15   1   3 662.128 16.4240   1
 -15   1   3 701.156 21.9826   3
 -15   1   3 669.525 17.8237   2
 -15   1   3 686.165 14.5508   6
  15   1  -3 669.738 18.1012   5
 -13  -1   3 1077.24 27.5992   3
  13  -1  -3 1044.29 26.1070   3
 -13  -1   3 1046.09 19.6285   1
 -13  -1   3 1054.41 22.7677   6
 -13  -1   3 1019.12 22.5636   6
  13   1  -3 1033.50 26.6412   3
 -13   1   3 1055.86 20.3135   6
 -13   1   3 1080.54 22.7623   1
 -13   1   3 1054.05 22.5590   2
 -13   1   3 1036.26 26.1686   3
  13   1  -3 1031.06 23.3493   5
 -13   1   3 1092.77 21.8596   6
 -11  -1   3 1645.82 35.9855   3
 -11  -1   3 1634.32 32.2600   6
  11  -1  -3 1660.33 34.4245   5
 -11  -1   3 1702.90 30.5246   1
 -11  -1   3 1671.35 32.1617   6
  11  -1  -3 1653.04 35.1265   3
 -11   1   3 1638.58 29.9723   6
 -11   1   3 1756.82 36.1230   3
  11   1  -3 1649.48 30.3593   1
  11   1  -3 1613.14 35.4216   3
 -11   1   3 1696.56 32.6371   1
 -11   1   3 1635.30 29.8644   6
  11   1  -3 1658.56 33.0238   5
   9  -1  -3 227.019 9.91666   3
  -9  -1   3 236.642 10.9738   3
  -9  -1   3 233.011 8.59748   6
   9  -1  -3 228.524 9.89188   5
  -9  -1   3 244.072 8.90093   6
  -9  -1   3 227.053 7.89565   1
   9   1  -3 249.351 6.95073   6
   9   1  -3 237.905 8.11791   1
  -9   1   3 238.214 7.52271   6
   9   1  -3 230.080 6.82896   6
   9   1  -3 242.302 10.9626   3
  -9   1   3 238.365 7.48933   6
  -9   1   3 239.692 9.07481   1
  -9   1   3 241.380 6.61080   2
  -9   1   3 237.201 10.2856   3
  -7  -1   3 65.2019 5.32607   1
   7  -1  -3 66.6184 6.02173   5
  -7  -1   3 57.9610 5.54223   6
   7  -1  -3 63.4634 2.96360   6
  -7  -1   3 67.4802 7.13284   3
  -7  -1   3 68.4518 5.55572   6
   7  -1  -3 67.9206 6.34510   3
   7  -1  -3 60.7858 3.07986   6
   7   1  -3 68.8779 5.23226   1
  -7   1   3 63.4572 4.93979   6
   7   1  -3 62.4737 5.13253   6
  -7   1   3 67.0705 2.36053   2
   7   1  -3 51.6390 5.82853   3
  -7   1   3 73.7275 6.63876   3
  -7   1   3 68.8083 6.08438   1
  -7   1   3 66.7273 4.96459   6
   5  -1  -3 0.19234 3.79862   1
   5  -1  -3 5.32133 2.96373   6
  -5  -1   3 1.55507 3.23357   6
  -5  -1   3 6.98921 3.67927   1
  -5  -1   3 1.82123 2.53863   2
   5  -1  -3 3.68534 2.85744   6
  -5  -1   3 -0.2031 4.02594   6
   5  -1  -3 -0.0121 3.34286   3
  -5  -1   3 -4.2312 3.75105   3
  -5   1   3 -1.0806 3.62137   3
  -5   1   3 -2.9363 3.04465   6
  -5   1   3 0.98082 3.48799   1
   5   1  -3 1.45665 3.37802   1
   5   1  -3 -1.0271 3.00977   6
   5   1  -3 3.48283 3.78623   3
   5   1  -3 1.56546 2.91333   6
  -3  -1   3 153.101 6.48980   2
  -3  -1   3 149.252 6.67705   6
   3  -1  -3 153.143 7.16302   3
  -3  -1   3 160.937 6.83863   6
   3  -1  -3 169.798 8.02528   1
   3  -1  -3 153.124 5.01991   2
   3  -1  -3 150.007 6.98148   6
  -3  -1   3 151.324 7.66373   3
  -3  -1   3 159.606 7.50376   1
   3  -1  -3 159.821 6.86238   6
   3   1  -3 156.905 6.38733   2
   3   1  -3 162.052 7.81333   6
  -3   1   3 151.605 7.60805   1
  -3   1   3 139.846 6.61335   4
  -3   1   3 154.023 6.91368   6
   3   1  -3 146.320 7.46018   3
   3   1  -3 150.062 6.95307   6
  -3   1   3 155.001 7.31507   3
  -3   1   3 148.023 6.99339   6
   3   1  -3 152.215 7.52135   1
   1  -1  -3 66.3256 5.78671   3
   1  -1  -3 64.1590 4.99682   2
  -1  -1   3 54.7379 5.68438   1
   1  -1  -3 55.5299 6.10780   6
   1  -1  -3 56.3671 6.10828   1
   1  -1  -3 54.8231 5.60382   6
   1  -1  -3 63.6517 4.61581   4
  -1  -1   3 62.1644 3.74725   6
  -1  -1   3 57.5850 4.23822   6
  -1  -1   3 61.9228 5.43304   2
   1   1  -3 59.3830 4.92651   6
  -1   1   3 64.4348 5.35251   6
   1   1  -3 60.0472 5.84633   3
  -1   1   3 65.8430 4.41139   4
   1   1  -3 63.0629 5.05754   6
   1   1  -3 60.3276 5.32502   2
   1   1  -3 56.1670 6.00136   1
  -1   1   3 63.4485 5.28014   6
  -1   1   3 72.1917 6.66614   1
  -1  -1  -3 19.8062 2.80833   4
   1  -1   3 13.2044 4.11868   2
  -1  -1  -3 15.9976 4.05995   1
  -1  -1  -3 17.0197 3.77824   6
   1  -1   3 11.8565 4.15867   1
  -1  -1  -3 20.8189 3.78155   6
  -1  -1  -3 15.1976 3.81132   2
  -1   1  -3 14.7222 3.72201   2
  -1   1  -3 16.8784 2.81401   6
   1   1   3 15.3306 4.06143   1
   1   1   3 18.1925 2.79761   4
  -1   1  -3 21.2064 4.39633   1
  -1   1  -3 21.8358 2.97529   6
   1   1   3 19.4728 3.21525   6
   1   1   3 14.0011 2.64310   6
  -3  -1  -3 310.694 9.46593   6
  -3  -1  -3 298.709 11.0080   1
  -3  -1  -3 330.529 11.2359   2
  -3  -1  -3 321.226 8.36970   4
   3  -1   3 325.787 11.7393   2
   3  -1   3 317.748 11.0682   1
  -3  -1  -3 316.343 9.43889   6
  -3   1  -3 305.596 11.3094   2
  -3   1  -3 297.408 11.4074   1
   3   1   3 317.513 8.37849   4
   3   1   3 319.011 11.2150   1
  -5  -1  -3 6.21936 3.14425   6
  -5  -1  -3 0.77134 4.15047   2
   5  -1   3 11.0762 4.23629   1
  -5  -1  -3 2.42850 3.98088   1
  -5  -1  -3 4.53499 2.96962   4
  -5  -1  -3 8.57355 3.39403   6
   5  -1   3 5.05723 5.41239   2
  -5   1  -3 4.17840 4.15494   1
  -5   1  -3 2.89808 3.85821   5
  -5   1  -3 3.34367 3.79174   2
   5   1   3 10.8309 3.96982   1
  -7  -1  -3 6.97819 3.58680   5
  -7  -1  -3 4.93631 4.02384   1
   7  -1   3 5.82095 4.70601   2
  -7  -1  -3 6.37095 3.99401   2
  -7  -1  -3 7.09335 3.17869   6
   7  -1   3 8.09330 4.23743   1
  -7  -1  -3 9.87794 3.13663   6
  -7  -1  -3 8.50578 3.26708   4
  -7   1  -3 4.10674 4.59066   2
   7   1   3 9.50704 3.85979   1
  -7   1  -3 12.9185 4.38564   5
  -7   1  -3 10.7953 4.57458   1
  -9  -1  -3 94.3770 8.00211   1
  -9  -1  -3 96.0934 6.46885   5
   9  -1   3 100.849 8.26393   1
  -9  -1  -3 105.484 6.34836   6
  -9  -1  -3 92.4427 6.52764   4
  -9   1  -3 112.950 8.74680   1
  -9   1  -3 100.574 7.98452   5
   9   1   3 105.241 7.58475   1
 -11  -1  -3 21.4036 4.94448   4
  11  -1   3 16.4047 4.82944   1
 -11  -1  -3 21.2536 4.87991   1
 -11  -1  -3 15.9419 4.22101   5
 -11   1  -3 15.6281 4.04040   4
 -11   1  -3 32.7844 8.00302   5
  11   1   3 23.5975 4.68833   1
 -13  -1  -3 19.8435 4.87586   1
 -13  -1  -3 16.7632 4.78728   4
 -13  -1  -3 10.4671 3.72305   5
 -13  -1  -3 9.97817 4.17346   6
 -13  -1  -3 10.7673 6.80106   3
 -13   1  -3 21.5347 5.27515   5
  13   1   3 11.0969 4.07834   1
 -13   1  -3 3.40674 4.66978   1
 -13   1  -3 3.65749 3.99300   4
 -13   1  -3 20.9718 7.15451   3
 -15  -1  -3 2.96628 4.93471   4
 -15  -1  -3 4.04663 4.05641   1
 -15  -1  -3 8.84541 3.85700   5
 -15  -1  -3 1.77074 4.38028   6
 -15  -1  -3 -2.2786 6.34253   3
 -15   1  -3 3.99194 4.16185   4
 -15   1  -3 6.04462 5.36424   5
 -15   1  -3 5.56495 6.92105   4
 -15   1  -3 -2.7775 4.44410   1
 -15   1  -3 -14.374 5.58230   3
 -17  -1  -3 21.5959 8.39199   3
 -17   1  -3 2.99620 4.59862   4
 -17   1  -3 -4.0598 4.25720   1
 -17   1  -3 -11.990 4.81784   4
 -17   1  -3 11.4280 7.95517   3
 -22  -2   3 177.459 16.2131   3
 -22  -2   3 150.417 10.0040   6
  22  -2  -3 156.239 14.9844   5
 -22   2   3 147.182 6.93722   6
 -22   2   3 141.122 6.46675   1
 -22   2   3 181.018 14.2594   3
 -20  -2   3 120.466 12.5636   3
  20  -2  -3 130.425 11.6647   5
 -20  -2   3 120.805 8.98390   6
 -20   2   3 129.204 6.32946   6
 -20   2   3 113.852 11.9908   3
 -20   2   3 107.401 7.17406   1
 -20   2   3 116.697 7.08131   1
  20   2  -3 128.426 8.12871   5
  18  -2  -3 112.664 10.1665   5
 -18  -2   3 114.679 12.5720   3
 -18  -2   3 98.0497 8.48683   6
  18   2  -3 111.622 8.00561   5
 -18   2   3 90.4385 7.65776   2
 -18   2   3 108.118 11.0116   3
 -18   2   3 92.6630 7.24756   1
  16  -2  -3 10.4508 6.33701   5
 -16  -2   3 1.03422 4.36883   6
 -16  -2   3 11.1291 7.15209   3
 -16   2   3 0.23346 3.74519   1
 -16   2   3 5.11614 5.36885   3
  16   2  -3 6.00467 4.30007   5
 -16   2   3 -3.4570 3.56248   2
  14  -2  -3 244.983 12.0149   3
 -14  -2   3 248.624 14.0178   3
 -14  -2   3 255.151 10.7754   6
  14  -2  -3 249.104 12.1510   5
 -14   2   3 248.133 12.3345   3
  14   2  -3 236.719 9.63487   5
 -14   2   3 222.663 9.88636   1
 -14   2   3 239.507 9.10028   2
 -12  -2   3 420.108 15.9325   3
 -12  -2   3 413.532 12.8552   6
  12  -2  -3 419.746 14.1317   3
  12  -2  -3 414.628 14.6475   5
 -12  -2   3 403.763 9.55052   1
 -12   2   3 417.113 21.0494   3
  12   2  -3 416.230 14.9832   3
  12   2  -3 414.370 12.3077   5
 -12   2   3 408.086 8.69349   6
  12   2  -3 414.794 9.80953   1
 -12   2   3 413.306 11.1157   2
 -12   2   3 414.809 13.0816   1
 -10  -2   3 3548.73 61.2931   1
 -10  -2   3 3605.31 69.8792   3
 -10  -2   3 3578.77 63.7979   6
 -10  -2   3 3546.23 63.7278   6
  10  -2  -3 3567.29 65.0224   3
  10  -2  -3 3490.44 65.4271   5
 -10   2   3 3498.89 59.8738   6
  10   2  -3 3469.46 66.1677   3
 -10   2   3 3675.61 65.5380   3
 -10   2   3 3527.35 64.4171   1
 -10   2   3 3596.07 59.9214   6
  10   2  -3 3639.72 61.5193   1
 -10   2   3 3566.42 60.3019   2
  -8  -2   3 1794.09 33.8122   1
  -8  -2   3 1752.34 34.4623   6
   8  -2  -3 1829.92 36.4026   5
  -8  -2   3 1795.14 34.8759   6
  -8  -2   3 1832.45 36.7672   3
   8  -2  -3 1737.78 34.9266   3
   8   2  -3 1763.53 36.1917   3
  -8   2   3 1811.67 36.2509   4
  -8   2   3 1769.66 30.1696   2
  -8   2   3 1792.56 32.2806   6
  -8   2   3 1824.89 35.9761   1
  -8   2   3 1829.07 32.3603   6
   8   2  -3 1798.86 33.6944   6
   8   2  -3 1782.58 33.6692   6
  -8   2   3 1760.42 35.2527   3
   8   2  -3 1798.23 33.6807   1
  -6  -2   3 2134.47 40.7411   3
   6  -2  -3 2086.55 35.9673   6
  -6  -2   3 2072.65 39.3444   6
  -6  -2   3 2117.75 39.4979   1
   6  -2  -3 2169.10 36.0561   6
  -6  -2   3 2134.22 39.4962   6
   6  -2  -3 2063.10 39.4418   3
   6  -2  -3 2115.43 40.3656   5
   6   2  -3 2133.83 40.6208   3
  -6   2   3 2153.50 38.2007   6
  -6   2   3 2117.79 38.1619   6
   6   2  -3 2136.39 39.2716   6
   6   2  -3 2133.42 39.0710   6
  -6   2   3 2152.28 41.1315   1
   6   2  -3 2013.68 39.2490   1
  -6   2   3 2139.75 40.6080   4
  -6   2   3 2055.16 39.5545   3
  -6   2   3 2148.23 38.2056   6
  -4  -2   3 2720.73 48.3227   4
   4  -2  -3 2686.38 49.1188   5
   4  -2  -3 2713.50 47.3292   6
   4  -2  -3 2706.44 48.7855   3
  -4  -2   3 2689.98 49.1954   3
  -4  -2   3 2639.54 48.3261   2
  -4  -2   3 2743.21 48.1668   6
  -4  -2   3 2743.72 48.1211   6
   4  -2  -3 2752.01 47.4508   6
   4  -2  -3 2681.40 48.8372   4
  -4  -2   3 2739.59 49.5688   1
   4   2  -3 2700.65 48.3524   6
  -4   2   3 2676.65 47.8524   6
  -4   2   3 2713.85 50.3426   1
  -4   2   3 2672.58 48.9652   4
   4   2  -3 2713.81 49.0279   3
   4   2  -3 2624.79 49.4558   1
   4   2  -3 2690.24 48.4160   6
  -4   2   3 2648.55 48.7938   3
  -4   2   3 2738.14 48.1224   6
  -4   2   3 2714.44 48.0641   6
  -2  -2   3 3854.76 65.9336   4
  -2  -2   3 3877.43 67.8333   3
   2  -2  -3 3837.70 67.0398   6
  -2  -2   3 3900.11 67.8435   2
   2  -2  -3 3844.47 67.1418   4
   2  -2  -3 3877.86 67.2759   6
  -2  -2   3 3832.00 68.9898   1
  -2  -2   3 3834.84 65.7080   6
   2  -2  -3 3873.21 68.0642   3
   2  -2  -3 3890.02 67.2675   6
   2  -2  -3 3900.38 69.4797   1
  -2   2   3 3855.85 67.3023   4
  -2   2   3 3812.46 67.3419   6
   2   2  -3 3932.21 67.6708   3
   2   2  -3 3885.02 69.2447   1
   2   2  -3 3909.32 67.7858   2
  -2   2   3 3904.66 69.4623   1
   2   2  -3 4004.84 69.7961   6
  -2   2   3 3899.20 67.3824   6
   2   2  -3 3990.51 66.7980   6
   0  -2  -3 3211.94 57.2863   6
   0  -2  -3 3281.03 57.3848   6
   0  -2   3 3218.92 54.3597   4
   0  -2   3 3340.01 58.4727   2
   0  -2  -3 3100.63 57.0104   6
   0  -2   3 3257.09 59.3745   1
   0  -2  -3 3238.21 59.2127   1
   0   2   3 3252.92 56.8997   6
   0   2   3 3153.24 58.8021   1
   0   2  -3 3261.83 55.2841   6
   0   2  -3 3269.85 59.5673   1
   0   2  -3 3242.41 55.2785   6
   0   2   3 3214.44 56.5887   4
   0   2  -3 3286.56 58.2741   2
   0   2  -3 3252.04 57.4410   3
   0   2   3 3257.03 56.8499   6
  -2  -2  -3 136.993 8.37950   1
  -2  -2  -3 149.139 7.55180   6
  -2  -2  -3 135.877 7.45785   6
   2  -2   3 151.580 7.99258   2
   2  -2   3 145.364 4.27136   4
  -2  -2  -3 132.070 7.63505   6
   2  -2   3 155.161 8.94428   1
  -2   2  -3 137.455 7.68377   2
   2   2   3 140.996 6.68435   4
   2   2   3 137.731 7.94510   1
  -2   2  -3 138.431 8.35475   1
   2   2   3 132.500 6.41173   6
  -2   2  -3 135.341 4.27776   4
  -2   2  -3 139.631 3.92913   6
  -4  -2  -3 4.16203 4.16691   1
  -4  -2  -3 0.96522 3.24920   4
   4  -2   3 1.38160 4.43510   2
   4  -2   3 4.32517 4.32083   1
  -4  -2  -3 -4.0177 3.22043   6
  -4  -2  -3 -0.9417 3.74291   6
  -4   2  -3 1.67225 3.69630   2
   4   2   3 -1.9513 3.18724   4
   4   2   3 0.59198 2.20651   6
   4   2   3 2.30561 3.73628   1
   4   2   3 -1.4430 2.35057   6
  -4   2  -3 3.71082 3.54777   5
  -4   2  -3 2.20353 4.33633   1
   6  -2   3 1051.08 25.9795   2
  -6  -2  -3 1026.67 22.3241   4
  -6  -2  -3 1054.74 22.7115   6
  -6  -2  -3 1052.85 24.0538   1
  -6  -2  -3 1014.45 22.3934   6
   6  -2   3 1031.75 25.0953   1
  -6  -2  -3 1013.41 25.6578   2
  -6   2  -3 1050.69 19.8440   4
  -6   2  -3 1073.88 25.6978   1
  -6   2  -3 1054.60 25.6091   2
  -6   2  -3 1010.54 24.1462   5
   6   2   3 1030.03 23.7026   1
  -8  -2  -3 1817.47 36.3232   4
  -8  -2  -3 1848.24 36.1696   6
   8  -2   3 1860.53 39.2082   1
   8  -2   3 1916.38 41.3752   2
  -8  -2  -3 1865.01 37.3230   1
  -8   2  -3 1783.28 41.1982   5
  -8   2  -3 1833.37 33.9442   4
   8   2   3 1829.45 36.9777   1
 -10  -2  -3 708.215 18.7755   1
 -10  -2  -3 727.684 18.5777   6
 -10  -2  -3 739.736 18.6582   6
 -10  -2  -3 704.981 19.0611   4
 -10   2  -3 735.436 17.2621   4
 -10   2  -3 706.460 20.4560   5
  10   2   3 722.599 18.6549   1
 -10   2  -3 738.948 21.5165   1
 -12  -2  -3 46.1353 5.93991   1
 -12  -2  -3 48.9668 6.63465   6
 -12  -2  -3 42.5474 8.15235   4
 -12  -2  -3 58.4680 6.99899   5
 -12  -2  -3 57.0691 6.80470   6
 -12   2  -3 46.9571 6.82833   1
 -12   2  -3 58.8784 6.38848   4
 -12   2  -3 57.0671 8.72513   5
 -12   2  -3 49.1014 7.91690   3
  12   2   3 48.9014 5.59923   1
 -14  -2  -3 136.157 9.71639   4
 -14  -2  -3 171.306 10.5699   6
 -14  -2  -3 143.924 10.0546   6
 -14  -2  -3 120.336 13.5037   3
 -14   2  -3 162.502 11.0970   1
  14   2   3 148.899 7.86774   1
 -16  -2  -3 133.148 14.7259   3
 -16  -2  -3 170.216 10.4978   6
 -16   2  -3 153.001 10.9139   1
 -16   2  -3 167.706 9.96932   4
 -16   2  -3 165.284 14.0740   3
 -18  -2  -3 82.6956 12.8372   3
 -18   2  -3 70.8672 11.3171   3
 -18   2  -3 96.7568 9.10932   4
 -18   2  -3 90.8201 9.38594   1
 -23  -3   3 31.0203 9.55282   3
  23  -3  -3 29.0230 7.75347   5
 -23   3   3 29.0805 4.98806   1
 -23   3   3 24.1937 8.53982   3
 -23   3   3 20.5189 7.70778   4
  21  -3  -3 20.8743 7.48988   5
 -21  -3   3 16.9301 8.04977   3
 -21  -3   3 14.2307 5.99064   6
 -21   3   3 4.83724 6.73542   3
 -21   3   3 12.3053 6.70663   4
  21   3  -3 8.40533 3.56905   5
  19  -3  -3 169.727 12.8622   5
 -19  -3   3 171.350 14.7338   3
 -19  -3   3 173.395 11.2129   6
 -19   3   3 180.957 13.2916   4
  19   3  -3 193.176 8.18007   5
 -19   3   3 148.058 9.47198   1
 -19   3   3 199.518 13.1735   3
 -19   3   3 172.769 10.0338   2
 -17  -3   3 15.4082 5.81311   6
  17  -3  -3 16.0627 6.82159   5
 -17  -3   3 9.55761 10.6645   3
 -17   3   3 12.0698 4.62668   1
  17   3  -3 17.9846 4.28321   5
 -17   3   3 11.3945 6.37068   3
 -17   3   3 15.4097 6.14622   4
 -17   3   3 19.4832 4.45283   2
  15  -3  -3 818.475 23.2871   3
 -15  -3   3 796.537 21.8286   6
  15  -3  -3 797.965 23.4687   5
 -15  -3   3 846.690 26.0340   3
 -15   3   3 837.273 24.7129   4
  15   3  -3 819.695 18.9765   5
 -15   3   3 861.720 23.8435   3
 -15   3   3 855.898 20.1842   2
  13  -3  -3 39.9890 6.80187   5
  13  -3  -3 41.3316 6.15393   3
 -13  -3   3 45.5186 6.44303   6
 -13  -3   3 35.9378 7.06099   3
  13   3  -3 38.4696 3.72242   1
 -13   3   3 35.3129 6.81077   5
 -13   3   3 46.3122 7.55587   4
 -13   3   3 45.7900 6.60212   3
 -13   3   3 43.9779 4.71721   2
  11  -3  -3 1338.68 31.2140   5
  11  -3  -3 1397.04 29.9508   3
 -11  -3   3 1370.42 31.6684   4
 -11  -3   3 1406.37 32.5357   3
 -11  -3   3 1356.72 29.7468   6
 -11  -3   3 1362.74 32.2586   6
 -11   3   3 1371.45 26.7737   2
  11   3  -3 1380.11 30.3844   6
 -11   3   3 1369.82 31.2112   5
  11   3  -3 1410.66 27.3871   6
  11   3  -3 1370.10 26.5313   1
  11   3  -3 1387.17 32.0330   3
 -11   3   3 1374.20 31.8507   4
 -11   3   3 1387.79 29.9559   3
   9  -3  -3 3930.24 66.2571   2
  -9  -3   3 3954.89 76.5758   3
  -9  -3   3 3930.55 70.7173   6
  -9  -3   3 3965.08 72.6992   4
  -9  -3   3 4018.91 68.9985   1
   9  -3  -3 4074.56 76.7299   5
   9  -3  -3 3966.87 70.2274   3
  -9  -3   3 3768.99 70.3399   6
   9   3  -3 3919.19 69.3671   6
  -9   3   3 3946.72 66.6526   6
  -9   3   3 3975.53 66.2507   2
  -9   3   3 4075.60 73.4603   4
  -9   3   3 3946.44 72.4019   5
   9   3  -3 3972.72 69.0732   1
  -9   3   3 4033.99 70.7810   3
  -9   3   3 3912.40 66.6868   6
   9   3  -3 3938.27 69.8371   6
   9   3  -3 3846.51 72.2487   3
  -7  -3   3 2.95070 3.98671   6
  -7  -3   3 3.21018 3.24703   1
  -7  -3   3 3.71866 3.53813   6
  -7  -3   3 -0.5500 4.26993   3
   7  -3  -3 5.05735 4.73551   5
  -7  -3   3 4.44594 4.24861   4
   7  -3  -3 1.16938 3.37928   3
   7   3  -3 5.29782 3.55353   1
  -7   3   3 0.51160 4.93044   5
  -7   3   3 6.78742 3.21490   6
   7   3  -3 -4.7698 3.61083   3
   7   3  -3 3.88596 3.76147   6
  -7   3   3 2.87005 3.01284   6
  -7   3   3 5.28448 4.08327   1
   7   3  -3 1.70913 3.71359   6
  -7   3   3 1.04008 3.73198   4
  -7   3   3 0.82348 3.41976   3
   5  -3  -3 122.380 8.18485   5
   5  -3  -3 111.675 7.68547   6
   5  -3  -3 113.137 6.74396   3
  -5  -3   3 120.135 7.37312   3
  -5  -3   3 120.954 7.08958   6
   5  -3  -3 117.663 7.70607   4
  -5  -3   3 122.850 7.07315   6
  -5  -3   3 122.062 7.29407   1
   5  -3  -3 122.474 5.37670   6
  -5  -3   3 121.494 7.52235   4
  -5   3   3 121.192 7.41873   4
   5   3  -3 125.121 7.16289   6
  -5   3   3 116.191 6.67490   6
   5   3  -3 122.658 7.44849   6
   5   3  -3 114.010 7.12022   3
  -5   3   3 115.223 6.84987   3
  -5   3   3 121.418 6.58998   6
   5   3  -3 115.636 7.53868   1
  -5   3   3 120.521 7.98460   1
   3  -3  -3 558.507 13.5642   6
  -3  -3   3 549.870 13.9966   4
   3  -3  -3 552.047 14.7985   5
  -3  -3   3 596.328 15.2984   2
  -3  -3   3 535.838 13.9350   3
  -3  -3   3 571.307 14.8093   6
  -3  -3   3 543.711 15.1854   1
   3  -3  -3 543.413 14.7237   4
   3  -3  -3 538.805 13.5230   6
   3  -3  -3 538.960 14.1121   3
  -3  -3   3 542.251 13.0204   6
   3   3  -3 527.533 13.7366   6
  -3   3   3 544.046 14.9014   4
   3   3  -3 545.915 13.9908   6
  -3   3   3 550.175 14.3211   6
  -3   3   3 522.394 15.7406   1
   3   3  -3 540.186 15.8731   1
   3   3  -3 544.394 13.8641   3
  -3   3   3 533.737 14.0558   6
  -3   3   3 562.844 14.2564   6
   1  -3  -3 44.1460 5.23753   6
  -1  -3   3 48.6523 5.79499   2
   1  -3  -3 49.6354 5.20333   4
   1  -3  -3 55.5599 5.50198   5
  -1  -3   3 51.4544 6.16779   1
  -1  -3   3 54.7338 5.47039   3
   1  -3  -3 56.0353 6.07048   6
  -1  -3   3 52.6535 5.57162   4
  -1  -3   3 53.3871 3.04738   6
  -1  -3   3 45.6126 2.96451   6
  -1   3   3 36.5399 4.68963   6
   1   3  -3 53.0532 5.60672   2
  -1   3   3 47.5256 6.15674   1
  -1   3   3 56.4733 5.83242   6
  -1   3   3 54.5120 6.22147   6
   1   3  -3 54.2301 4.90394   6
   1   3  -3 48.1674 5.03209   6
   1   3  -3 57.1626 6.30542   1
   1   3  -3 46.0173 4.90511   4
  -1   3   3 47.4444 5.23690   4
   1   3  -3 45.8762 4.91270   3
   1  -3   3 253.626 7.75596   4
  -1  -3  -3 274.918 10.2695   6
  -1  -3  -3 261.599 9.75484   4
   1  -3   3 267.362 11.1246   2
  -1  -3  -3 264.413 8.78165   5
  -1  -3  -3 257.295 10.3233   6
   1  -3   3 265.039 11.5829   1
  -1   3  -3 272.725 7.33089   6
   1   3   3 260.067 9.78743   6
  -1   3  -3 271.536 7.34093   6
  -1   3  -3 266.598 11.6349   1
   1   3   3 258.623 9.60609   6
  -1   3  -3 265.954 9.15039   3
   1   3   3 254.398 9.63272   4
   1   3   3 247.128 10.4063   1
  -1   3  -3 258.484 7.73049   4
  -1   3  -3 268.985 10.6027   2
  -3  -3  -3 210.721 9.71295   6
   3  -3   3 188.606 9.95822   1
   3  -3   3 204.370 6.63342   4
  -3  -3  -3 204.925 9.42485   6
  -3  -3  -3 195.854 8.82616   4
   3   3   3 190.621 8.74961   4
   3   3   3 219.324 10.2395   1
  -3   3  -3 188.900 6.67033   4
  -3   3  -3 208.861 10.1715   5
  -3   3  -3 204.336 9.99265   2
  -3   3  -3 212.606 11.1630   1
   5  -3   3 446.663 15.5918   2
  -5  -3  -3 449.547 15.6127   6
  -5  -3  -3 455.442 14.1863   6
   5  -3   3 460.489 15.8243   1
  -5  -3  -3 472.566 14.3690   6
  -5  -3  -3 461.101 13.6211   4
  -5  -3  -3 460.181 14.4461   1
   5   3   3 448.148 13.7121   4
   5   3   3 464.391 14.4216   1
  -5   3  -3 428.666 14.9454   2
  -5   3  -3 442.394 14.6507   5
   5   3   3 456.348 11.1733   6
  -5   3  -3 456.214 11.1304   4
  -5   3  -3 461.376 18.2343   1
   5   3   3 460.933 11.1902   6
  -7  -3  -3 156.690 9.86145   6
  -7  -3  -3 169.172 9.83477   6
   7  -3   3 169.792 10.4247   2
  -7  -3  -3 158.383 9.57283   6
  -7  -3  -3 182.953 9.32700   4
  -7   3  -3 173.798 11.0526   2
  -7   3  -3 179.738 10.0040   5
  -7   3  -3 178.023 10.8148   1
   7   3   3 172.088 9.09308   1
  -7   3  -3 158.965 7.05344   4
  -9  -3  -3 97.0603 9.79499   6
   9  -3   3 93.0832 9.80561   2
  -9  -3  -3 89.5422 8.43261   4
  -9  -3  -3 90.6961 4.19455   5
   9   3   3 77.4880 7.36872   1
  -9   3  -3 90.3225 8.73367   5
  -9   3  -3 85.2700 6.39001   4
  -9   3  -3 99.0626 10.0826   1
 -11  -3  -3 13.1996 5.49942   6
 -11  -3  -3 4.68560 5.01042   4
  11  -3   3 5.01527 5.33647   2
  11   3   3 14.9574 4.22963   1
 -11   3  -3 8.03910 3.84224   4
 -11   3  -3 9.44488 5.47601   1
 -13  -3  -3 13.7691 5.52812   6
 -13  -3  -3 3.51942 5.72844   4
 -13  -3  -3 13.5449 6.88220   3
 -13   3  -3 7.80545 6.15122   3
 -13   3  -3 4.83734 4.07860   4
 -13   3  -3 2.66230 4.84988   1
  13   3   3 8.87445 3.53921   1
 -15  -3  -3 19.1333 6.13578   6
 -15  -3  -3 22.6636 8.56719   3
  15   3   3 7.13026 3.48202   1
 -15   3  -3 2.09998 6.53116   3
 -15   3  -3 1.70547 4.46979   4
 -15   3  -3 9.81522 5.26545   1
 -17   3  -3 10.9082 4.95636   4
 -17   3  -3 35.3514 8.47340   3
 -17   3  -3 27.0579 6.36934   1
 -22  -4   3 6.94534 6.28497   6
  22  -4  -3 -1.0632 6.68987   5
 -22   4   3 0.87002 6.29500   4
 -22   4   3 -3.4035 5.83151   3
 -22   4   3 0.48997 4.52781   1
  20  -4  -3 9.95859 6.85572   5
 -20  -4   3 4.76617 5.69990   6
 -20  -4   3 13.5099 8.61929   3
  20   4  -3 7.90436 2.62054   5
 -20   4   3 9.13879 5.04184   1
 -20   4   3 1.50156 5.72651   4
 -20   4   3 5.87555 9.77751   3
 -18  -4   3 20.8459 6.49039   6
 -18  -4   3 22.5519 8.46480   3
 -18   4   3 33.4171 5.42364   2
 -18   4   3 15.7931 6.55578   4
  18   4  -3 26.9291 3.94273   5
 -18   4   3 28.0401 6.97656   3
 -16  -4   3 45.9892 7.98969   6
  16  -4  -3 50.6088 7.36298   3
 -16  -4   3 44.0502 10.1817   3
  16  -4  -3 43.7547 8.11104   5
 -16   4   3 49.5988 5.90532   2
 -16   4   3 51.9609 8.97375   4
  16   4  -3 45.2520 4.99781   5
 -16   4   3 48.9135 7.61650   3
 -14  -4   3 83.9094 10.0127   3
 -14  -4   3 81.1256 9.18237   6
  14  -4  -3 83.0828 9.28810   5
  14   4  -3 78.2496 4.61863   1
 -14   4   3 84.4141 9.65438   4
 -14   4   3 82.3653 6.68229   2
 -14   4   3 82.0798 8.27198   3
  14   4  -3 86.3399 5.24358   6
  14   4  -3 82.1569 5.55744   6
 -12  -4   3 58.5136 8.08262   3
  12  -4  -3 70.2934 8.45029   5
 -12  -4   3 70.0019 7.74164   6
 -12  -4   3 79.4577 8.57141   6
  12  -4  -3 63.4089 7.19745   3
  12  -4  -3 63.9438 5.55826   2
 -12   4   3 54.7249 7.82916   4
 -12   4   3 61.8690 5.14960   2
  12   4  -3 68.3101 7.05903   6
 -12   4   3 66.8091 7.30077   3
  12   4  -3 66.0100 5.47319   1
  12   4  -3 55.5664 6.28255   6
  10  -4  -3 150.073 9.76542   5
  10  -4  -3 148.056 6.37729   2
 -10  -4   3 142.835 9.40983   4
 -10  -4   3 126.706 9.16008   3
 -10  -4   3 143.448 9.19650   6
 -10  -4   3 143.554 9.30902   6
  10  -4  -3 131.618 7.86195   3
  10   4  -3 155.956 8.44228   6
 -10   4   3 131.148 6.59784   6
  10   4  -3 144.074 8.38114   6
  10   4  -3 145.223 9.73279   3
 -10   4   3 146.934 8.30717   3
 -10   4   3 127.839 10.1294   5
  10   4  -3 143.136 7.47511   1
 -10   4   3 121.038 9.16516   4
  -8  -4   3 1486.23 33.0375   4
   8  -4  -3 1460.42 32.5406   5
  -8  -4   3 1425.46 30.7954   6
  -8  -4   3 1476.74 31.1532   6
   8  -4  -3 1483.73 27.1474   2
  -8  -4   3 1510.67 32.3362   3
   8  -4  -3 1437.25 28.9867   3
  -8   4   3 1482.22 28.0029   6
  -8   4   3 1423.82 29.2829   3
   8   4  -3 1411.03 31.3744   3
   8   4  -3 1438.69 30.1501   1
   8   4  -3 1525.73 34.8690   6
  -8   4   3 1401.55 28.5532   6
  -8   4   3 1489.27 32.8105   4
   6  -4  -3 2191.85 41.1752   3
   6  -4  -3 2230.71 44.4170   4
  -6  -4   3 2229.66 43.3808   3
   6  -4  -3 2304.66 47.5232   5
  -6  -4   3 2241.18 44.1117   4
  -6  -4   3 2247.88 42.7423   6
   6  -4  -3 2233.51 39.5841   2
   6   4  -3 2187.89 43.5372   1
  -6   4   3 2263.11 41.3738   6
  -6   4   3 2176.11 41.2858   3
  -6   4   3 2335.36 54.3225   4
   6   4  -3 2180.03 42.5326   6
   6   4  -3 2246.56 43.0423   3
   6   4  -3 2246.94 43.2467   6
  -6   4   3 2249.78 44.2736   5
  -6   4   3 2217.95 41.2334   6
   4  -4  -3 5.95887 3.89363   4
  -4  -4   3 5.99233 3.70175   1
   4  -4  -3 2.50722 2.62134   6
  -4  -4   3 1.61939 3.26044   6
  -4  -4   3 6.89602 3.73283   3
   4  -4  -3 7.70440 3.45321   6
  -4  -4   3 1.67444 3.90838   4
   4  -4  -3 6.15432 4.83477   5
  -4  -4   3 6.86685 4.55598   2
  -4  -4   3 5.65800 3.69919   6
   4  -4  -3 7.68718 3.53146   3
   4   4  -3 0.17022 4.06027   4
  -4   4   3 4.84549 4.80130   5
   4   4  -3 2.47084 3.60779   6
   4   4  -3 4.45185 3.39030   3
  -4   4   3 3.74602 3.89333   6
  -4   4   3 3.03067 3.85169   6
   4   4  -3 5.59715 3.92955   6
  -4   4   3 3.14992 4.52563   4
   4   4  -3 5.91623 4.33050   1
   2  -4  -3 1121.31 24.6374   5
   2  -4  -3 1169.51 24.1539   6
  -2  -4   3 1105.71 23.8352   4
  -2  -4   3 1152.43 25.7308   2
   2  -4  -3 1144.02 24.1592   3
   2  -4  -3 1066.76 24.8231   4
  -2  -4   3 1107.26 21.4490   6
  -2  -4   3 1145.03 23.3743   3
  -2  -4   3 1074.73 25.7412   1
   2  -4  -3 1111.08 23.7496   6
   2   4  -3 1123.15 23.1922   3
   2   4  -3 1089.73 23.9880   4
   2   4  -3 1137.70 25.0563   6
  -2   4   3 1100.78 24.5561   6
  -2   4   3 1121.25 24.4655   6
  -2   4   3 1094.19 26.4244   1
   2   4  -3 1125.24 23.5246   6
  -2   4   3 1112.84 25.4504   4
   2   4  -3 1154.05 26.7840   1
   0  -4  -3 328.612 10.7714   5
   0  -4  -3 334.307 11.8434   4
   0  -4  -3 310.347 11.5474   6
   0  -4   3 337.309 12.7479   2
   0  -4  -3 327.088 11.8296   6
   0  -4   3 327.330 10.5218   4
   0  -4   3 329.264 12.8672   1
   0   4  -3 317.597 12.3864   5
   0   4   3 323.126 11.9249   4
   0   4  -3 340.788 9.78834   6
   0   4  -3 337.316 13.4916   1
   0   4  -3 331.332 9.95165   3
   0   4   3 309.836 12.4569   1
   0   4  -3 326.759 10.6198   4
   0   4  -3 320.482 9.58418   6
   0   4   3 324.161 11.7196   6
   0   4  -3 340.586 12.0547   2
   0   4   3 328.102 11.6605   6
   0   4   3 333.232 11.6309   6
   2  -4   3 67.6814 5.47370   4
  -2  -4  -3 61.0061 5.60044   5
  -2  -4  -3 63.6127 6.98083   6
   2  -4   3 62.1427 6.94901   2
   2  -4   3 63.7188 6.95629   1
  -2  -4  -3 75.9419 7.39384   6
  -2  -4  -3 61.0855 6.29980   4
  -2   4  -3 58.5237 4.02102   6
  -2   4  -3 66.1284 7.75152   1
  -2   4  -3 69.1902 7.55402   2
   2   4   3 48.4119 6.06739   4
   2   4   3 65.7692 7.09522   1
  -2   4  -3 69.4833 5.70482   4
  -2   4  -3 54.8539 3.94924   6
  -2   4  -3 58.8020 5.43229   3
  -2   4  -3 63.6393 6.96519   5
   2   4   3 64.7073 7.05389   6
   2   4   3 82.6756 11.5844   6
  -4  -4  -3 85.7150 7.80192   4
  -4  -4  -3 90.8151 8.18983   6
  -4  -4  -3 83.8674 8.20456   6
   4  -4   3 77.1427 8.37599   2
   4  -4   3 89.9184 5.71659   4
  -4  -4  -3 91.0361 5.30764   5
   4   4   3 93.6541 8.04423   6
  -4   4  -3 100.094 8.53532   2
   4   4   3 94.8583 7.99742   1
  -4   4  -3 81.2170 5.80741   4
  -4   4  -3 73.7712 7.83203   5
   4   4   3 91.3584 6.93604   6
   4   4   3 84.8569 7.63899   4
  -4   4  -3 89.0908 9.19918   1
  -6  -4  -3 50.6935 4.06855   5
  -6  -4  -3 49.2831 6.42272   4
  -6  -4  -3 47.6251 6.53763   6
   6  -4   3 56.9416 8.05811   2
  -6  -4  -3 48.9927 7.11228   6
  -6   4  -3 50.2644 7.42975   2
   6   4   3 53.9107 5.55028   6
  -6   4  -3 55.2068 7.73397   5
   6   4   3 50.0287 6.29170   1
  -6   4  -3 55.6777 7.66114   1
   6   4   3 51.7120 5.57331   6
  -6   4  -3 49.0269 5.46066   4
  -8  -4  -3 34.1500 7.30652   4
   8  -4   3 39.1839 7.38786   2
  -8  -4  -3 31.6616 6.76638   6
  -8   4  -3 43.4619 5.17374   4
   8   4   3 34.5596 5.50169   1
  -8   4  -3 46.3093 7.50080   1
 -10  -4  -3 92.1530 9.67052   6
  10  -4   3 79.1841 9.62997   2
 -10  -4  -3 73.0280 8.02425   4
  10   4   3 59.6236 7.25964   1
 -10   4  -3 80.2408 7.14561   4
 -10   4  -3 74.9204 8.91742   1
  12  -4   3 12.2833 6.93498   2
 -12  -4  -3 -1.6731 5.50937   6
 -12  -4  -3 12.0503 7.44694   3
  12   4   3 7.80132 4.08088   1
 -12   4  -3 4.88691 4.15945   4
 -12   4  -3 1.16472 4.49883   3
 -12   4  -3 2.76399 5.81826   1
 -14  -4  -3 6.42274 5.76780   6
 -14  -4  -3 15.3710 7.57463   3
 -14   4  -3 -1.7917 4.36223   4
 -14   4  -3 16.7835 6.60350   3
  14   4   3 3.47708 3.49848   1
 -14   4  -3 14.2554 6.14271   1
 -16  -4  -3 25.8565 9.13829   3
 -16  -4  -3 21.8781 7.04191   6
 -16   4  -3 17.3577 7.12476   3
 -16   4  -3 21.4303 6.09956   1
 -16   4  -3 20.4477 5.80731   4
  21  -5  -3 30.3161 9.35907   5
 -21  -5   3 44.8071 12.3432   3
 -21  -5   3 56.6367 12.4330   6
 -21   5   3 68.9164 9.00801   3
 -21   5   3 50.3731 9.45462   4
 -21   5   3 51.8516 7.55859   1
 -19  -5   3 58.9007 10.3547   3
  19  -5  -3 54.4861 9.93013   5
 -19  -5   3 67.4838 9.44014   6
 -19   5   3 74.2245 8.91288   3
 -19   5   3 75.5629 8.59456   2
 -19   5   3 57.3340 9.53197   4
  17  -5  -3 115.052 12.6137   5
 -17  -5   3 101.760 10.7776   6
 -17  -5   3 114.935 12.2673   3
 -17   5   3 104.463 11.6866   4
 -17   5   3 102.041 9.99567   3
  17   5  -3 103.262 5.32241   5
  15  -5  -3 29.7323 7.93301   5
 -15  -5   3 7.27456 6.20855   6
  15  -5  -3 12.8042 5.12822   3
 -15  -5   3 18.6635 7.90714   3
 -15   5   3 21.7213 4.61915   2
  15   5  -3 17.2946 4.01991   6
  15   5  -3 17.0576 4.18156   6
 -15   5   3 24.5567 6.74382   4
  15   5  -3 14.1495 2.89516   1
 -15   5   3 19.0059 5.45679   3
  15   5  -3 20.3757 4.23925   5
  13  -5  -3 791.013 20.6746   3
  13  -5  -3 786.475 24.3404   5
  13  -5  -3 781.731 18.9581   2
 -13  -5   3 786.092 24.5923   3
 -13  -5   3 805.522 23.0954   6
 -13   5   3 780.344 24.3049   4
 -13   5   3 776.244 18.9063   2
 -13   5   3 799.535 20.8772   3
  13   5  -3 811.685 23.4565   6
  13   5  -3 800.738 19.9074   6
  13   5  -3 804.273 18.6209   1
 -11  -5   3 84.0778 9.08370   3
  11  -5  -3 82.2757 6.92836   3
 -11  -5   3 81.4456 9.71532   6
  11  -5  -3 90.9233 9.75150   5
  11  -5  -3 88.7075 6.22983   2
 -11  -5   3 123.490 14.6307   6
  11   5  -3 82.3293 8.94925   3
  11   5  -3 69.2564 6.84207   1
 -11   5   3 83.6297 5.07667   6
  11   5  -3 77.6060 7.90035   6
 -11   5   3 84.4251 8.85982   4
  11   5  -3 85.3300 7.89395   6
 -11   5   3 90.0947 6.96493   3
   9  -5  -3 896.696 19.4697   2
  -9  -5   3 901.983 23.5764   3
   9  -5  -3 907.442 20.1227   3
  -9  -5   3 917.347 23.0445   6
  -9  -5   3 865.624 24.3219   4
   9  -5  -3 871.265 23.7806   4
  -9  -5   3 924.689 28.0184   6
   9  -5  -3 925.642 25.0259   5
   9   5  -3 919.213 24.1905   6
  -9   5   3 880.418 20.1924   3
  -9   5   3 851.147 23.5381   5
   9   5  -3 954.532 23.1466   6
   9   5  -3 901.116 22.2417   1
  -9   5   3 891.967 24.2679   4
  -9   5   3 867.039 19.1446   6
  -9   5   3 916.372 19.4293   6
   7  -5  -3 68.1619 7.67947   4
   7  -5  -3 89.6471 8.32261   5
  -7  -5   3 74.5322 7.60245   3
   7  -5  -3 75.4525 5.43100   2
  -7  -5   3 71.6788 7.33024   6
  -7  -5   3 72.1412 7.84218   4
   7  -5  -3 67.0794 5.70735   3
  -7  -5   3 75.5731 7.85936   6
   7   5  -3 77.1187 7.39426   6
   7   5  -3 79.3424 7.65404   1
   7   5  -3 108.762 11.1596   6
  -7   5   3 74.8064 8.18184   4
  -7   5   3 68.6993 5.65192   3
   7   5  -3 71.7800 6.91537   3
  -7   5   3 66.3640 7.24400   5
  -7   5   3 75.5609 6.42286   6
  -7   5   3 77.8243 5.81047   6
  -5  -5   3 69.1163 6.62647   6
  -5  -5   3 56.7288 6.17553   3
   5  -5  -3 62.4911 7.93564   4
  -5  -5   3 77.8176 7.76556   4
   5  -5  -3 62.2002 5.41292   3
   5  -5  -3 76.8744 8.26806   5
   5  -5  -3 68.5856 4.11992   6
  -5  -5   3 67.9338 6.71719   6
   5   5  -3 66.6084 6.41655   3
  -5   5   3 79.1177 8.24317   4
   5   5  -3 64.4993 7.40848   6
   5   5  -3 67.1208 7.96703   1
   5   5  -3 74.2315 8.16879   4
  -5   5   3 81.5275 8.05097   5
  -5   5   3 74.0523 6.92767   6
   5   5  -3 75.2098 7.33884   6
  -3  -5   3 3503.21 64.5047   4
  -3  -5   3 3443.27 62.3247   3
   3  -5  -3 3484.22 64.6238   5
  -3  -5   3 3553.85 61.5172   6
   3  -5  -3 3562.01 62.1792   6
   3  -5  -3 3507.10 65.9748   4
  -3  -5   3 3489.13 61.3205   6
  -3  -5   3 3628.90 66.2592   2
   3  -5  -3 3510.23 62.4964   3
  -3   5   3 3435.63 64.0486   6
   3   5  -3 3571.52 65.0168   5
   3   5  -3 3453.17 63.6598   6
   3   5  -3 3561.42 62.4188   3
   3   5  -3 3545.04 64.8137   4
  -3   5   3 3534.94 66.1973   4
  -3   5   3 3570.60 64.8580   5
  -3   5   3 3469.09 63.8624   6
   3   5  -3 3543.74 63.7347   6
   3   5  -3 3485.35 69.9114   1
  -1  -5   3 820.700 21.3408   2
  -1  -5   3 803.596 17.6803   3
   1  -5  -3 769.785 20.8510   4
   1  -5  -3 793.872 19.6275   5
   1  -5  -3 774.656 19.4314   6
   1  -5  -3 777.587 19.4006   6
  -1  -5   3 751.202 19.3382   4
  -1   5   3 834.868 21.7655   4
   1   5  -3 781.769 17.4862   3
   1   5  -3 792.566 21.1495   5
   1   5  -3 792.447 22.4848   1
  -1   5   3 791.564 20.1896   6
  -1   5   3 790.666 22.1725   1
   1   5  -3 795.233 19.9779   4
  -1   5   3 762.803 20.1681   6
   1   5  -3 774.126 18.5730   6
   1  -5   3 88.5813 6.59573   4
  -1  -5  -3 95.4576 6.82456   5
  -1  -5  -3 94.7129 8.20152   6
  -1  -5  -3 88.9910 7.96614   4
   1  -5   3 101.509 8.11726   2
   1   5   3 97.8213 8.52659   6
  -1   5  -3 90.5716 7.91221   2
   1   5   3 96.4078 8.47839   4
  -1   5  -3 111.688 7.50050   4
  -1   5  -3 96.0645 8.33338   5
   1   5   3 100.893 8.50984   6
  -1   5  -3 81.6093 9.26698   1
  -1   5  -3 94.8089 6.07701   6
  -1   5  -3 92.1236 6.60427   3
   1   5   3 90.1354 8.71239   1
  -1   5  -3 93.3237 5.83589   6
  -3  -5  -3 8.01841 3.36183   5
  -3  -5  -3 6.81143 4.88524   6
  -3  -5  -3 7.15912 5.28443   6
   3  -5   3 0.41942 3.30009   4
   3  -5   3 2.13078 5.00547   2
  -3   5  -3 6.08939 2.47510   6
  -3   5  -3 2.67752 2.46066   6
  -3   5  -3 5.90788 4.39575   2
  -3   5  -3 0.08804 3.06237   3
   3   5   3 -0.8125 4.62644   4
  -3   5  -3 5.63366 3.78985   4
   3   5   3 9.07140 4.73924   6
   3   5   3 8.66796 5.14891   1
  -3   5  -3 2.94249 5.43579   1
   3   5   3 4.62906 4.65211   6
  -3   5  -3 5.55851 4.52226   5
   3   5   3 -1.4991 4.28238   6
  -5  -5  -3 1.37445 4.86544   6
   5  -5   3 -3.3306 3.21311   4
  -5  -5  -3 2.17938 2.94708   5
   5  -5   3 -0.5558 4.36080   2
  -5  -5  -3 -1.6989 5.13040   6
  -5  -5  -3 2.80191 4.60049   4
   5   5   3 0.04644 4.62689   4
  -5   5  -3 -4.1025 3.40213   4
   5   5   3 -7.4106 3.94612   1
  -5   5  -3 3.61952 3.48710   3
   5   5   3 -2.3212 4.16643   6
   5   5   3 -0.9494 4.03821   6
  -5   5  -3 3.90065 5.74577   1
  -7  -5  -3 56.9242 7.51455   4
   7  -5   3 69.3998 9.10386   2
  -7  -5  -3 55.3366 8.01155   6
   7   5   3 61.1879 8.16999   4
  -7   5  -3 60.1495 8.54274   1
   7   5   3 56.0345 7.08232   1
   7   5   3 63.6076 6.75237   6
   7   5   3 61.9051 6.87843   6
  -7   5  -3 55.1270 6.01349   4
  -9  -5  -3 39.2751 7.85221   6
   9  -5   3 29.0429 7.41377   2
   9   5   3 20.8680 5.32434   1
  -9   5  -3 44.8007 7.98169   1
  -9   5  -3 42.1294 6.12036   4
 -11  -5  -3 232.400 13.4768   6
  11  -5   3 183.306 13.5238   2
  11   5   3 194.863 10.1790   1
 -11   5  -3 203.194 11.4321   3
 -11   5  -3 243.451 13.9666   1
 -13  -5  -3 267.445 15.2700   6
  13  -5   3 262.670 15.5168   2
 -13  -5  -3 227.107 16.4421   3
 -13   5  -3 285.627 15.7574   1
  13   5   3 266.110 11.1539   1
 -13   5  -3 285.629 13.8460   3
 -13   5  -3 263.526 12.0765   4
 -15  -5  -3 24.5542 9.34981   3
 -15  -5  -3 23.0030 7.76364   6
 -15   5  -3 26.3125 11.5146   1
 -15   5  -3 9.36502 5.36397   4
 -15   5  -3 28.6978 6.58798   3
 -20  -6   3 43.6948 10.2995   3
 -20  -6   3 49.1110 9.05200   6
  20  -6  -3 49.2028 9.47567   5
 -20   6   3 62.4413 8.33495   3
 -20   6   3 41.4331 9.50885   4
 -18  -6   3 24.4980 7.87624   6
  18  -6  -3 31.0506 9.30507   5
 -18  -6   3 15.3781 8.83242   3
 -18   6   3 25.5460 5.24925   2
 -18   6   3 33.2042 9.03805   4
 -18   6   3 34.5008 6.57149   3
 -16  -6   3 -6.7910 5.74970   6
 -16  -6   3 -2.3171 6.20979   3
  16  -6  -3 -4.3280 6.83259   5
  16   6  -3 -2.2710 2.77024   5
  16   6  -3 -0.1941 2.49378   1
 -16   6   3 5.21769 4.74950   3
 -16   6   3 -1.7674 6.16909   4
  16   6  -3 -0.3497 3.81221   6
  16   6  -3 0.98108 4.07392   6
  16   6  -3 1.87935 4.07619   6
 -14  -6   3 324.949 15.6188   6
  14  -6  -3 327.814 12.1313   2
 -14  -6   3 317.644 16.7394   3
  14  -6  -3 309.869 12.1513   3
  14   6  -3 326.232 11.4425   1
 -14   6   3 329.405 12.8994   3
  14   6  -3 308.491 9.95517   5
 -14   6   3 321.090 8.58943   6
 -14   6   3 310.889 16.1616   4
  14   6  -3 317.661 14.2161   6
  12  -6  -3 936.589 22.1109   3
 -12  -6   3 964.482 25.9503   6
 -12  -6   3 971.439 26.3469   6
  12  -6  -3 945.829 22.2784   2
 -12  -6   3 1007.05 27.9271   3
 -12   6   3 978.866 22.4912   3
  12   6  -3 958.255 24.3343   6
  12   6  -3 955.641 24.3352   6
 -12   6   3 966.009 20.0833   6
 -12   6   3 939.174 27.3639   4
  12   6  -3 976.404 23.4529   1
  10  -6  -3 1086.37 29.1561   5
  10  -6  -3 1073.10 23.2199   3
 -10  -6   3 1085.88 27.3401   6
 -10  -6   3 1097.66 27.7813   6
 -10  -6   3 1095.78 27.9220   3
  10  -6  -3 1102.09 24.0533   2
 -10   6   3 1107.38 23.5680   3
  10   6  -3 1087.51 26.5653   6
 -10   6   3 1085.37 23.1544   6
  10   6  -3 1055.30 27.4736   3
  10   6  -3 1110.24 27.0180   6
  10   6  -3 1076.62 26.1718   1
 -10   6   3 1111.78 29.6199   4
   8  -6  -3 553.043 18.7810   5
  -8  -6   3 600.337 18.2690   3
   8  -6  -3 559.460 13.9180   3
   8  -6  -3 548.521 14.9647   2
  -8  -6   3 553.827 17.3419   6
  -8  -6   3 589.505 17.7632   6
   8   6  -3 542.552 17.2967   6
   8   6  -3 569.467 16.0060   5
  -8   6   3 558.751 15.2850   6
   8   6  -3 541.249 17.5201   3
   8   6  -3 573.698 20.7350   1
   8   6  -3 575.427 17.8233   6
  -8   6   3 574.642 19.7834   4
  -6  -6   3 -1.9795 4.18630   6
  -6  -6   3 0.60058 5.10877   4
   6  -6  -3 -4.4735 5.62076   5
   6  -6  -3 2.17756 2.96110   3
  -6  -6   3 -2.0064 3.96852   3
   6  -6  -3 3.15267 4.86732   4
   6  -6  -3 3.47942 3.61261   2
  -6  -6   3 1.80159 4.13575   6
  -6   6   3 -6.9368 4.15412   4
   6   6  -3 -3.3410 5.14014   4
   6   6  -3 2.38919 3.68343   3
   6   6  -3 9.12860 4.60648   5
  -6   6   3 3.63869 4.18790   6
   6   6  -3 2.45464 4.87908   1
   6   6  -3 2.70049 4.89137   6
  -6   6   3 5.34830 4.70065   5
   6   6  -3 3.32313 4.55552   6
   4  -6  -3 720.007 21.4093   4
  -4  -6   3 756.052 18.0867   6
  -4  -6   3 765.725 21.0598   4
   4  -6  -3 769.719 21.1994   5
  -4  -6   3 770.358 21.9581   2
  -4  -6   3 745.467 18.4597   3
   4  -6  -3 766.366 16.6671   6
   4  -6  -3 750.714 17.5603   3
   4  -6  -3 753.881 16.4434   6
   4   6  -3 759.625 21.5569   4
   4   6  -3 741.581 22.1603   6
  -4   6   3 758.812 21.1204   5
  -4   6   3 746.521 21.7819   4
   4   6  -3 745.842 22.8013   5
  -4   6   3 733.093 19.5740   6
   4   6  -3 730.440 20.2474   6
  -4   6   3 753.319 20.0149   6
   4   6  -3 751.830 18.2165   3
   4   6  -3 742.908 22.3988   1
  -2  -6   3 814.042 22.8565   2
   2  -6  -3 840.932 20.0121   6
  -2  -6   3 791.002 21.4525   4
   2  -6  -3 842.538 20.0243   6
  -2  -6   3 863.157 16.4984   6
   2  -6  -3 845.330 22.0700   5
   2  -6  -3 792.601 19.3618   3
  -2  -6   3 827.645 18.6152   3
  -2  -6   3 818.397 16.3104   6
   2  -6  -3 804.848 22.5796   4
  -2   6   3 810.185 21.5591   6
  -2   6   3 820.739 23.5248   6
   2   6  -3 802.328 20.3510   6
  -2   6   3 824.670 23.2244   4
   2   6  -3 820.223 18.4347   3
   2   6  -3 802.688 21.6871   4
   2   6  -3 814.578 21.9876   5
   2   6  -3 832.763 20.7323   6
  -2   6   3 823.359 21.2195   5
   2   6  -3 824.073 23.7175   1
   0  -6  -3 265.100 11.5094   6
   0  -6   3 247.139 12.2172   2
   0  -6  -3 266.849 11.0614   5
   0  -6  -3 249.515 11.3745   6
   0  -6   3 255.815 10.9522   4
   0  -6  -3 246.611 12.2442   4
   0   6   3 256.073 11.9565   6
   0   6   3 258.720 13.0044   4
   0   6  -3 242.172 13.0334   1
   0   6   3 272.046 13.1868   1
   0   6  -3 254.293 10.1320   6
   0   6  -3 251.326 11.7690   5
   0   6  -3 253.314 9.65480   6
   0   6   3 265.567 18.5116   6
  -2  -6  -3 143.434 8.06223   5
  -2  -6  -3 118.311 9.39202   6
  -2  -6  -3 126.612 9.96812   4
   2  -6   3 136.320 9.72125   2
   2  -6   3 134.039 8.48630   4
  -2  -6  -3 134.435 9.97259   6
   2   6   3 127.879 10.3264   1
   2   6   3 142.423 10.9453   4
   2   6   3 147.384 9.92611   6
   2   6   3 122.024 9.48468   6
   2   6   3 122.533 9.96574   6
  -2   6  -3 136.131 7.87233   3
  -2   6  -3 141.430 11.5462   1
  -2   6  -3 145.891 9.14743   4
  -2   6  -3 131.734 7.16595   6
  -4  -6  -3 6.17007 3.83017   5
   4  -6   3 2.43755 5.62908   2
  -4  -6  -3 8.52096 5.93622   4
   4  -6   3 5.00206 4.15865   4
  -4  -6  -3 6.93154 5.55708   6
  -4  -6  -3 4.73185 5.73574   6
   4   6   3 4.24925 5.07616   6
  -4   6  -3 7.61582 2.96424   3
  -4   6  -3 4.37341 5.30494   1
  -4   6  -3 11.7636 4.50949   4
  -4   6  -3 0.23477 2.79240   6
   4   6   3 0.50451 5.17193   1
   4   6   3 7.65835 5.13656   6
   4   6   3 5.79230 5.69801   6
   4   6   3 -0.3797 5.60734   4
  -6  -6  -3 642.975 20.5866   6
   6  -6   3 685.509 22.2019   2
   6  -6   3 635.252 17.6984   4
  -6  -6  -3 658.896 21.3203   6
  -6  -6  -3 650.496 14.3391   5
   6   6   3 654.923 18.6051   6
  -6   6  -3 621.913 16.0755   3
   6   6   3 639.711 18.6551   6
   6   6   3 641.506 20.3245   1
  -6   6  -3 648.106 22.5265   1
  -6   6  -3 662.306 19.8471   4
   6   6   3 663.071 21.1267   4
  -8  -6  -3 620.956 21.1545   6
   8  -6   3 652.697 22.4743   2
   8   6   3 625.780 19.8895   1
   8   6   3 635.125 17.1056   6
  -8   6  -3 627.027 20.4460   4
   8   6   3 640.632 17.2504   6
   8   6   3 626.093 21.1563   4
  -8   6  -3 624.112 23.1682   1
  10  -6   3 200.039 14.2125   2
 -10  -6  -3 193.041 14.6895   3
 -10  -6  -3 194.917 13.9172   6
 -10   6  -3 210.114 10.5925   3
 -10   6  -3 216.471 14.6848   1
  10   6   3 197.761 16.6178   1
 -10   6  -3 182.828 10.4539   4
 -12  -6  -3 23.6484 8.05718   6
 -12  -6  -3 26.3772 8.11802   3
  12  -6   3 26.6108 8.35885   2
 -12   6  -3 23.3494 5.90032   3
 -12   6  -3 25.2330 7.59160   1
  12   6   3 11.5164 4.94782   1
 -12   6  -3 9.95789 5.43384   4
  14  -6   3 11.7264 8.35136   2
 -14  -6  -3 19.4802 8.56196   3
 -14  -6  -3 24.8550 8.29822   6
 -14   6  -3 16.8233 5.72346   4
 -14   6  -3 26.0786 7.49440   1
 -14   6  -3 21.4906 5.98721   3
  14   6   3 13.8234 5.70837   1
 -19  -7   3 43.0083 8.22312   6
  19  -7  -3 44.6833 10.2326   5
 -19  -7   3 19.6556 8.41658   3
 -19   7   3 46.1400 6.98545   3
 -19   7   3 40.4757 9.31237   4
 -17  -7   3 4.90475 6.68909   6
  17  -7  -3 12.3887 8.50764   5
  17  -7  -3 4.65835 4.98170   2
 -17  -7   3 -5.3306 5.87401   3
  17   7  -3 10.8270 3.06936   1
  17   7  -3 9.92217 3.99396   6
  17   7  -3 7.61608 4.79484   6
 -17   7   3 11.9973 4.85730   3
 -17   7   3 13.9326 3.80718   6
 -17   7   3 12.3206 7.21141   4
  17   7  -3 11.3333 4.93313   6
 -15  -7   3 27.1059 8.51378   3
  15  -7  -3 21.4376 7.47310   5
 -15  -7   3 32.5023 8.19760   6
  15  -7  -3 34.1401 5.98596   2
 -15   7   3 23.4808 8.45747   4
  15   7  -3 36.8409 6.51681   6
  15   7  -3 26.9768 3.89543   5
  15   7  -3 32.2447 5.07970   1
  15   7  -3 30.3754 6.94300   6
 -15   7   3 32.4013 5.52962   3
 -13  -7   3 296.114 16.0512   3
  13  -7  -3 307.020 12.2730   2
  13  -7  -3 302.595 10.5127   3
  13  -7  -3 292.151 17.0822   5
 -13  -7   3 293.363 15.0707   6
  13   7  -3 307.381 13.7151   6
 -13   7   3 308.380 10.1500   6
 -13   7   3 304.235 16.5969   4
  13   7  -3 288.933 10.3083   5
  13   7  -3 292.432 13.2255   6
  13   7  -3 285.466 18.5519   1
 -13   7   3 304.933 10.8759   3
  11  -7  -3 481.314 15.2783   2
 -11  -7   3 466.833 18.1358   6
  11  -7  -3 470.224 12.9014   3
  11  -7  -3 499.540 20.3651   5
 -11  -7   3 489.989 18.2557   3
 -11  -7   3 444.279 21.5060   6
  11   7  -3 477.836 14.3679   5
  11   7  -3 492.321 17.0130   1
  11   7  -3 474.701 17.2157   6
 -11   7   3 478.969 13.0085   3
 -11   7   3 480.856 14.0781   6
  11   7  -3 490.190 17.7460   6
 -11   7   3 482.963 19.7939   4
  -9  -7   3 31.0438 6.90996   6
  -9  -7   3 28.8197 6.66033   3
   9  -7  -3 28.1517 8.56491   5
  -9  -7   3 31.3560 6.73238   6
   9  -7  -3 21.5653 5.25729   2
   9  -7  -3 22.4846 4.57681   3
   9   7  -3 34.2928 6.35974   3
  -9   7   3 25.7742 5.52267   6
   9   7  -3 27.1097 6.38940   6
   9   7  -3 35.0409 6.86037   1
   9   7  -3 28.2844 6.68914   6
  -9   7   3 29.8224 7.84012   4
   9   7  -3 33.2189 5.92785   5
  -7  -7   3 63.9575 8.25927   3
   7  -7  -3 61.6545 8.91190   5
  -7  -7   3 61.0922 7.53843   6
   7  -7  -3 52.6684 6.32968   2
  -7  -7   3 46.6230 7.13355   6
   7   7  -3 50.4604 6.54910   3
  -7   7   3 62.4314 7.55040   6
   7   7  -3 51.0986 8.66017   4
  -7   7   3 62.3414 9.33377   4
   7   7  -3 54.0429 8.04129   6
   7   7  -3 44.3674 7.82258   1
   7   7  -3 44.9824 7.32146   6
   5  -7  -3 48.0613 8.48243   5
  -5  -7   3 45.7266 6.19373   6
   5  -7  -3 40.2105 4.50277   3
  -5  -7   3 41.5981 6.01885   3
   5   7  -3 39.7211 7.34253   1
  -5   7   3 32.1260 6.59078   6
   5   7  -3 43.0007 6.91789   5
   5   7  -3 44.2345 7.79176   4
   5   7  -3 49.4010 7.93658   6
   5   7  -3 45.0841 5.69324   3
  -5   7   3 34.8152 7.71216   4
   5   7  -3 38.9817 6.78256   6
   3  -7  -3 34.6941 6.53905   5
  -3  -7   3 34.0730 4.62049   6
   3  -7  -3 31.1118 5.00567   6
  -3  -7   3 24.9526 4.47521   3
  -3  -7   3 31.9568 7.07186   2
  -3  -7   3 27.2828 4.47480   6
   3  -7  -3 32.6905 5.09995   6
   3  -7  -3 35.3771 4.90078   3
  -3  -7   3 20.8771 5.76038   4
   3   7  -3 28.9860 4.41968   3
  -3   7   3 29.0016 6.52718   6
   3   7  -3 28.8321 6.19181   6
  -3   7   3 28.4363 6.66454   6
  -3   7   3 27.9095 7.33844   4
   3   7  -3 16.6765 6.82243   1
   3   7  -3 33.7364 6.12494   5
   3   7  -3 20.2645 6.57658   4
  -3   7   3 32.2806 6.87157   5
   1  -7  -3 1.57948 4.48090   6
   1  -7  -3 2.85707 5.51795   5
  -1  -7   3 4.59954 3.29077   3
  -1  -7   3 -0.3081 4.46328   2
  -1  -7   3 8.34571 4.63867   4
   1  -7  -3 -0.3149 4.61102   6
  -1   7   3 -0.5206 5.23624   4
  -1   7   3 -7.2870 5.31651   5
   1   7  -3 3.47951 4.54685   6
   1   7  -3 9.17335 6.18863   1
  -1   7   3 -2.3901 5.02468   6
   1   7  -3 6.32262 5.58939   4
  -1   7   3 -1.6278 6.36355   6
   1  -7   3 192.734 10.5250   4
  -1  -7  -3 210.893 11.7154   6
   1  -7   3 209.464 12.0296   2
  -1  -7  -3 198.434 11.3799   6
   1   7   3 209.387 12.8622   4
  -1   7  -3 196.227 12.9118   1
   1   7   3 191.320 11.7839   6
   1   7   3 181.683 11.9298   6
  -1   7  -3 201.017 11.5974   4
  -1   7  -3 202.508 6.71814   3
  -1   7  -3 192.608 9.71375   6
  -3  -7  -3 127.052 8.09650   5
   3  -7   3 125.527 11.1460   2
  -3  -7  -3 131.525 10.8039   6
  -3  -7  -3 126.676 10.5331   6
   3  -7   3 125.122 9.30343   4
   3   7   3 117.387 10.3196   6
  -3   7  -3 118.391 12.2146   1
   3   7   3 126.646 10.8496   6
  -3   7  -3 145.416 10.3569   4
  -3   7  -3 125.835 5.29315   3
   3   7   3 124.226 11.2080   4
  -3   7  -3 119.974 7.76470   6
   3   7   3 139.664 10.7309   6
  -5  -7  -3 -0.2630 6.00063   6
  -5  -7  -3 -2.6948 5.86794   6
   5  -7   3 8.07457 4.75871   4
   5  -7   3 6.75075 5.36402   2
  -5  -7  -3 2.05596 3.53904   5
  -5   7  -3 -2.8450 2.95611   6
   5   7   3 2.16985 5.42073   6
   5   7   3 -1.6293 6.17019   4
  -5   7  -3 -2.3388 4.69941   4
  -5   7  -3 3.84100 5.70805   1
  -7  -7  -3 174.353 13.2072   6
   7  -7   3 167.654 9.87666   4
   7  -7   3 150.979 16.4164   2
   7   7   3 174.864 12.7414   4
   7   7   3 162.401 10.6089   6
  -7   7  -3 156.211 7.39432   3
  -7   7  -3 147.205 15.7313   1
  -7   7  -3 161.392 10.4162   4
   7   7   3 162.091 11.5711   6
   7   7   3 129.860 12.3184   1
  -7   7  -3 142.449 7.05513   3
   9  -7   3 55.7922 9.51745   2
  -9  -7  -3 68.1627 9.69179   3
  -9  -7  -3 68.9790 9.83749   6
   9   7   3 49.6804 7.55647   1
  -9   7  -3 72.8265 7.16982   3
  -9   7  -3 53.1246 5.99355   3
   9   7   3 69.0289 7.49834   6
  -9   7  -3 66.6017 7.58948   4
   9   7   3 86.1171 8.35047   6
   9   7   3 82.3639 10.1494   4
  -9   7  -3 60.3130 10.1041   1
 -11  -7  -3 2.78280 7.45471   3
  11  -7   3 20.7899 7.47835   2
 -11  -7  -3 16.2895 7.90524   6
  11   7   3 11.2578 5.82035   1
 -11   7  -3 7.74515 5.97136   3
 -11   7  -3 9.80634 7.30897   1
 -11   7  -3 12.3515 5.75640   4
 -13  -7  -3 11.4185 8.72162   3
  13  -7   3 2.15270 6.83742   2
 -13  -7  -3 6.49294 6.79874   6
 -13   7  -3 -0.2368 4.49878   3
 -13   7  -3 -1.3326 6.33842   1
 -13   7  -3 -8.1220 4.51497   4
  18  -8  -3 97.8066 9.48418   2
 -18  -8   3 83.1883 11.5111   6
 -18  -8   3 90.4024 12.8533   3
  18  -8  -3 102.122 19.7959   5
 -18   8   3 86.7833 12.1796   4
  18   8  -3 83.5336 6.34362   6
 -18   8   3 93.2930 8.16677   3
  18   8  -3 101.898 6.64070   6
  18   8  -3 73.3594 7.79491   1
 -16  -8   3 61.9590 11.0185   6
  16  -8  -3 65.3555 11.1714   5
 -16  -8   3 57.2605 9.91815   3
  16  -8  -3 49.8671 6.57989   2
  16   8  -3 54.0965 6.63346   6
 -16   8   3 78.3756 6.01415   6
 -16   8   3 63.1017 6.60860   3
  16   8  -3 50.5547 6.25473   1
  16   8  -3 62.7162 7.67205   6
 -16   8   3 48.7310 10.0212   4
  14  -8  -3 8.25641 7.54897   5
 -14  -8   3 5.01009 6.29334   3
  14  -8  -3 3.54121 4.51374   2
 -14   8   3 9.10259 6.88972   4
 -14   8   3 -0.0379 3.37601   6
 -14   8   3 1.57608 3.29939   3
  14   8  -3 0.44649 4.61927   1
  14   8  -3 -0.5643 4.90007   6
  14   8  -3 6.38255 5.47834   6
  14   8  -3 9.22278 3.69810   5
 -12  -8   3 15.1578 6.10341   6
 -12  -8   3 12.0219 8.29315   6
  12  -8  -3 2.50570 6.49613   5
  12  -8  -3 4.32339 4.91652   2
 -12  -8   3 14.8569 6.63096   3
 -12   8   3 9.35864 7.17911   4
 -12   8   3 12.5686 4.66758   6
  12   8  -3 6.33117 5.63286   6
  12   8  -3 11.1994 5.35563   1
  12   8  -3 20.6243 4.93737   5
  12   8  -3 8.39807 6.49156   6
  10  -8  -3 36.6148 5.96739   2
 -10  -8   3 31.1871 7.64091   6
 -10  -8   3 29.6970 7.11792   6
 -10  -8   3 30.2877 7.29287   3
  10  -8  -3 38.0222 9.31649   5
  10  -8  -3 32.0234 3.55893   3
  10   8  -3 34.5509 7.05342   1
  10   8  -3 33.9619 7.75602   6
  10   8  -3 31.9878 7.35520   6
 -10   8   3 29.8306 6.05832   6
 -10   8   3 21.1488 7.06894   4
  -8  -8   3 25.1687 6.45642   3
  -8  -8   3 24.6967 6.67418   6
  -8  -8   3 36.8791 10.6642   6
   8  -8  -3 18.1988 2.81898   3
   8  -8  -3 19.8193 7.65218   5
   8  -8  -3 16.2614 5.55652   2
   8   8  -3 23.5183 7.89973   4
  -8   8   3 19.9049 6.89391   4
   8   8  -3 13.6102 6.71801   1
   8   8  -3 23.5738 5.54006   3
  -8   8   3 24.3136 6.59537   6
   8   8  -3 30.8219 6.21426   5
   8   8  -3 26.1810 6.59884   6
   8   8  -3 9.23196 6.71906   6
   6  -8  -3 373.393 16.9932   5
  -6  -8   3 372.380 14.0555   3
  -6  -8   3 366.086 13.8511   6
   6  -8  -3 357.328 14.0961   2
  -6  -8   3 351.027 13.5705   6
   6   8  -3 380.186 16.5924   6
   6   8  -3 360.125 19.5535   6
   6   8  -3 346.922 14.2470   5
   6   8  -3 345.373 17.2066   4
   6   8  -3 371.670 17.4907   1
  -6   8   3 396.483 17.9485   4
   6   8  -3 351.620 13.0427   3
  -6   8   3 357.039 14.9142   6
   4  -8  -3 27.7035 7.62855   5
   4  -8  -3 31.7605 4.29970   3
  -4  -8   3 36.9203 5.55672   6
  -4  -8   3 40.8661 8.24562   2
  -4  -8   3 28.9262 5.12311   6
  -4  -8   3 32.8428 5.06158   3
   4  -8  -3 28.5229 3.53113   6
  -4   8   3 38.4978 7.70846   6
   4   8  -3 21.7448 6.85771   6
   4   8  -3 21.1846 7.67243   1
   4   8  -3 38.8408 7.83469   4
  -4   8   3 38.5304 8.60081   4
   4   8  -3 41.2210 5.04946   3
   2  -8  -3 -1.8444 4.28429   6
  -2  -8   3 4.98649 6.15387   2
   2  -8  -3 -1.1492 5.74557   5
   2  -8  -3 -4.7008 3.42853   3
  -2  -8   3 1.07868 3.30493   3
   2   8  -3 -0.6228 2.66074   3
  -2   8   3 -1.2256 6.28645   4
   2   8  -3 0.14858 5.17961   6
   2   8  -3 2.69600 5.97883   4
   2   8  -3 -2.6615 6.20325   1
   0  -8  -3 63.1933 7.96691   6
   0  -8  -3 61.7546 8.16539   5
   0  -8   3 45.8800 8.12268   2
   0  -8  -3 50.8803 7.09478   6
   0   8  -3 68.4233 8.59453   4
   0   8  -3 64.8443 7.85146   6
   0   8   3 56.0882 8.39960   4
   0   8   3 56.8469 7.93235   5
   0   8   3 65.4001 8.82455   6
   0   8  -3 49.8082 8.74066   1
   0   8   3 61.8794 8.60182   6
   0   8  -3 63.5049 4.18088   3
  -2  -8  -3 2.66736 5.06478   5
  -2  -8  -3 10.7025 5.79157   6
   2  -8   3 7.81474 5.83280   2
  -2  -8  -3 2.66887 5.67436   6
  -2   8  -3 4.79060 5.68218   4
   2   8   3 3.76443 6.20366   6
  -2   8  -3 10.1604 6.52965   1
  -2   8  -3 11.5773 4.97621   6
   2   8   3 7.06702 6.15999   6
   2   8   3 11.4110 6.27347   4
  -4  -8  -3 -6.7171 5.80934   6
  -4  -8  -3 2.37300 5.87135   6
  -4  -8  -3 2.05849 4.25546   5
  -4   8  -3 6.73324 4.33114   6
   4   8   3 -1.2041 5.84587   6
  -4   8  -3 2.02244 6.65324   1
   4   8   3 0.70977 5.83389   6
  -4   8  -3 7.44583 5.75162   4
   4   8   3 6.50626 6.25443   4
   4   8   3 6.92027 6.39980   6
  -6  -8  -3 -4.7410 6.43685   6
  -6  -8  -3 -9.4046 5.75271   6
   6  -8   3 -9.5665 5.22240   2
  -6  -8  -3 -1.6662 5.87150   3
  -6  -8  -3 2.28476 3.47942   5
  -6   8  -3 -0.7080 3.24552   6
   6   8   3 -9.2708 5.27234   6
  -6   8  -3 -0.8190 5.85832   1
  -6   8  -3 4.30678 5.29901   4
   6   8   3 -10.369 7.06907   4
  -8  -8  -3 11.8501 7.82898   3
  -8  -8  -3 10.8703 6.79423   6
   8  -8   3 11.3848 7.13146   2
   8   8   3 9.06088 6.75357   4
  -8   8  -3 7.59179 2.88125   3
   8   8   3 14.7400 5.82447   6
  -8   8  -3 4.57287 5.49825   4
  -8   8  -3 17.0799 7.64831   1
  -8   8  -3 13.6917 5.33223   6
 -10  -8  -3 1.40513 6.93392   6
  10  -8   3 2.54159 6.29949   2
 -10  -8  -3 5.31068 6.39637   3
 -10   8  -3 5.43498 7.37878   1
  10   8   3 11.4351 5.05338   6
 -10   8  -3 12.0149 3.72986   3
  10   8   3 5.19931 5.09912   6
 -10   8  -3 13.3914 5.90031   4
  10   8   3 17.9734 7.47719   4
 -10   8  -3 1.02814 3.12551   3
 -12  -8  -3 5.01353 8.27106   6
  12  -8   3 -3.2502 6.81753   2
 -12  -8  -3 13.0185 8.02804   3
 -12   8  -3 -0.1888 4.92335   4
 -12   8  -3 4.64864 7.34534   1
 -12   8  -3 -1.7929 5.34710   3
 -17  -9   3 50.5515 9.94903   6
  17  -9  -3 45.1077 10.3340   5
 -17  -9   3 30.3855 9.64370   3
  17  -9  -3 36.7132 6.84194   2
  17   9  -3 34.0629 8.62305   1
  17   9  -3 45.6051 7.21547   6
 -17   9   3 36.7738 10.8411   4
  15  -9  -3 150.129 15.2665   5
  15  -9  -3 167.926 10.6197   2
 -15  -9   3 187.307 14.2359   6
 -15  -9   3 176.442 14.1376   3
  15   9  -3 144.520 11.3512   6
 -15   9   3 162.060 14.9295   4
  15   9  -3 174.505 10.6837   1
  13  -9  -3 82.4531 8.65453   2
 -13  -9   3 101.702 11.4848   3
 -13  -9   3 103.306 11.9466   6
  13  -9  -3 87.1119 12.2827   5
 -13  -9   3 94.8959 10.6995   6
  13   9  -3 94.3725 10.1778   6
  13   9  -3 103.269 11.5238   6
 -13   9   3 90.7225 12.1495   4
  13   9  -3 116.055 7.47338   5
 -13   9   3 105.311 7.79265   6
  13   9  -3 64.6283 8.27221   1
 -11  -9   3 5.90238 6.05291   6
  11  -9  -3 4.64493 5.12312   2
 -11  -9   3 2.69655 5.59579   6
 -11  -9   3 3.91881 5.81046   3
  11  -9  -3 -4.1537 6.68139   5
  11   9  -3 2.22149 4.32445   5
 -11   9   3 0.67466 7.05964   4
  11   9  -3 -1.4078 5.43927   6
  11   9  -3 9.82607 6.23710   6
  11   9  -3 4.66737 5.77140   1
 -11   9   3 10.4371 5.19146   6
   9  -9  -3 48.7143 7.14000   2
   9  -9  -3 41.5077 10.0896   5
  -9  -9   3 63.4045 8.14607   3
  -9  -9   3 35.4706 7.43289   6
  -9  -9   3 51.9232 7.77395   6
  -9   9   3 41.2132 9.50961   4
   9   9  -3 40.3198 9.26616   6
  -9   9   3 58.6564 10.1701   6
   9   9  -3 36.1878 8.12335   4
   9   9  -3 57.6018 8.58516   6
   9   9  -3 46.1091 8.22244   1
   9   9  -3 48.9433 7.31720   5
  -7  -9   3 423.801 15.3964   6
   7  -9  -3 411.867 19.1176   5
  -7  -9   3 431.479 15.3233   3
  -7  -9   3 413.951 15.7103   6
   7  -9  -3 459.534 16.4258   2
   7   9  -3 461.703 19.6800   4
   7   9  -3 444.599 19.7811   1
  -7   9   3 451.735 20.4333   4
   7   9  -3 458.218 18.7507   6
  -7   9   3 438.852 17.0173   6
  -5  -9   3 388.125 17.6784   2
  -5  -9   3 384.785 13.0858   6
  -5  -9   3 367.182 13.2213   6
  -5  -9   3 366.830 13.1841   3
   5  -9  -3 363.234 17.3302   5
   5  -9  -3 391.220 15.6337   2
   5   9  -3 404.560 18.9123   1
  -5   9   3 408.944 19.0702   4
   5   9  -3 347.938 16.6922   6
  -5   9   3 389.531 16.5917   6
   3  -9  -3 170.962 8.01855   3
   3  -9  -3 165.299 7.62471   6
   3  -9  -3 188.272 7.80038   6
  -3  -9   3 178.796 12.6940   2
   3  -9  -3 184.968 12.9531   5
  -3  -9   3 175.947 8.14465   3
   3   9  -3 170.955 13.2705   4
   3   9  -3 178.097 12.6119   6
  -3   9   3 211.827 15.0387   4
   3   9  -3 195.725 16.7734   1
   1  -9  -3 45.9247 8.95545   6
   1  -9  -3 52.5452 6.99880   6
   1  -9  -3 60.0905 8.56154   5
   1  -9  -3 47.4979 5.78382   3
  -1  -9   3 70.2757 10.2133   2
   1   9  -3 52.8315 10.1021   1
  -1   9   3 58.3891 9.92466   4
  -1   9   3 41.8885 8.22338   6
   1   9  -3 55.0631 8.32677   6
   1   9  -3 32.7586 8.28557   4
   1  -9   3 428.596 18.9593   2
  -1  -9  -3 457.223 16.2564   5
  -1  -9  -3 427.296 16.4809   6
  -1  -9  -3 415.552 15.5062   6
  -1   9  -3 426.459 20.1312   1
  -1   9  -3 402.115 15.7939   6
   1   9   3 436.147 18.5823   6
   1   9   3 394.982 18.0225   5
   1   9   3 454.498 20.2254   4
  -1   9  -3 428.972 17.9783   4
  -3  -9  -3 386.391 14.4031   5
  -3  -9  -3 354.720 15.3463   6
   3  -9   3 357.187 17.2176   2
  -3  -9  -3 388.668 16.8971   6
  -3  -9  -3 378.698 15.8783   3
  -3   9  -3 368.819 14.3286   6
  -3   9  -3 403.880 17.3996   4
   3   9   3 363.876 18.9776   4
  -3   9  -3 378.000 19.4029   1
  -5  -9  -3 0.73588 6.54235   6
  -5  -9  -3 6.89328 4.90792   5
  -5  -9  -3 -3.7184 5.49330   3
   5  -9   3 9.56521 6.31415   2
  -5  -9  -3 12.6687 6.39340   6
  -5   9  -3 -6.4665 6.62625   1
   5   9   3 18.9937 7.79015   4
  -5   9  -3 13.4979 4.68930   6
  -5   9  -3 10.8954 6.38976   4
   5   9   3 6.14271 6.40259   6
   5   9   3 2.86691 5.28896   6
   5   9   3 7.15190 5.74516   6
   7  -9   3 4.10879 6.29816   2
  -7  -9  -3 3.60041 6.75436   6
  -7   9  -3 -1.8581 7.31963   1
  -7   9  -3 1.55707 5.57891   4
   7   9   3 5.46704 6.46631   6
   7   9   3 -6.7160 6.52371   6
   7   9   3 3.83073 7.52488   4
  -7   9  -3 10.2718 3.90810   6
  -9  -9  -3 8.53561 6.78153   3
   9  -9   3 7.52684 6.68822   2
  -9  -9  -3 -2.6573 6.49721   6
   9   9   3 -0.7085 5.53170   6
  -9   9  -3 0.77231 6.52825   1
   9   9   3 5.87935 7.02441   4
   9   9   3 -4.1867 4.50824   6
  -9   9  -3 1.87597 5.44500   4
  -9   9  -3 10.3024 4.44910   6
  11  -9   3 97.1503 12.0952   2
 -11  -9  -3 129.732 14.2275   3
 -11  -9  -3 144.609 13.9709   6
 -11   9  -3 107.710 10.7085   4
  11   9   3 101.221 8.98430   6
  11   9   3 119.089 10.5310   6
 -11   9  -3 78.4354 12.4370   1
  14 -10  -3 16.7534 5.64097   2
 -14 -10   3 14.2247 7.62762   6
  14 -10  -3 17.8660 8.70008   5
 -14 -10   3 8.86187 7.62986   3
 -14  10   3 33.7023 9.06011   4
  14  10  -3 12.2098 5.63846   1
  14  10  -3 14.4241 8.92987   6
  12 -10  -3 110.369 13.9303   5
  12 -10  -3 76.1080 8.72038   2
 -12 -10   3 92.3495 11.1752   6
 -12 -10   3 123.504 10.8911   6
  12  10  -3 112.618 11.4296   1
 -12  10   3 78.3582 12.1345   4
  12  10  -3 90.7188 10.9433   6
  12  10  -3 109.489 8.88583   5
 -12  10   3 88.5221 8.88303   6
  12  10  -3 131.998 11.6451   6
  10 -10  -3 97.6360 12.9606   5
  10 -10  -3 90.8838 9.55428   2
 -10 -10   3 78.2396 10.3470   6
 -10 -10   3 118.330 10.0516   6
 -10 -10   3 77.5690 8.97888   3
  10  10  -3 75.9995 11.9330   1
  10  10  -3 84.2043 10.5763   6
 -10  10   3 70.3942 11.6356   4
  10  10  -3 82.8971 10.4763   6
  -8 -10   3 35.1898 7.22966   6
  -8 -10   3 50.6587 7.69844   6
  -8 -10   3 24.8912 6.31956   3
   8 -10  -3 38.2114 7.07135   2
   8 -10  -3 38.8670 8.69893   5
  -8  10   3 25.8204 6.57167   6
   8  10  -3 27.8507 10.6109   6
   8  10  -3 26.1837 8.74155   4
  -8  10   3 40.3611 9.68033   4
   8  10  -3 24.8424 8.00657   1
  -6 -10   3 52.3825 9.82455   2
   6 -10  -3 45.0284 9.58099   5
  -6 -10   3 49.8711 6.35835   6
  -6 -10   3 54.1528 9.97247   3
   6 -10  -3 42.5997 7.50520   2
  -6 -10   3 45.4107 6.64222   6
   6  10  -3 28.2599 8.41945   4
  -6  10   3 50.2950 8.46424   6
  -6  10   3 37.7487 9.16218   4
   6  10  -3 38.2855 9.01616   1
   6  10  -3 46.6610 9.51591   6
  -4 -10   3 56.9148 5.96847   6
  -4 -10   3 46.9498 5.32215   3
  -4 -10   3 77.5452 10.6733   2
   4 -10  -3 70.8058 10.3385   5
   4 -10  -3 53.9287 4.52714   3
  -4 -10   3 54.5200 7.89834   6
   4 -10  -3 56.5299 8.73141   2
  -4  10   3 56.0226 9.08394   6
   4  10  -3 55.0558 9.25665   6
   4  10  -3 64.3550 10.3737   4
   4  10  -3 38.9754 9.66845   1
  -4  10   3 49.1071 9.86129   4
   2 -10  -3 356.945 11.5507   3
   2 -10  -3 348.248 11.5117   6
   2 -10  -3 332.844 11.2998   3
  -2 -10   3 343.294 18.4051   2
   2 -10  -3 347.131 11.3315   6
   2 -10  -3 348.039 16.2677   5
   2  10  -3 357.068 18.9321   6
  -2  10   3 348.105 18.6699   4
  -2  10   3 361.709 17.3412   6
   2  10  -3 364.561 19.8889   1
   2  10  -3 348.799 18.0843   4
   0 -10   3 120.524 12.3721   2
   0 -10  -3 101.632 8.26160   3
   0 -10  -3 109.580 11.0613   5
   0 -10  -3 139.987 15.0164   6
   0 -10  -3 143.697 13.6004   3
   0 -10  -3 114.922 9.53021   6
   0  10  -3 107.047 11.8128   4
   0  10   3 116.313 13.4155   4
   0  10   3 117.757 12.9306   6
   0  10  -3 113.093 13.7720   1
   0  10  -3 100.548 10.9816   6
  -2 -10  -3 21.3803 6.96212   6
   2 -10   3 20.2840 8.13028   2
  -2 -10  -3 29.6270 6.88828   5
  -2 -10  -3 37.3654 6.66415   3
  -2 -10  -3 35.0143 6.43507   6
   2  10   3 33.5059 8.24743   6
  -2  10  -3 24.1235 7.88949   4
  -2  10  -3 10.4762 8.28296   1
   2  10   3 24.0663 8.74495   4
  -2  10  -3 27.9030 6.32889   6
  -4 -10  -3 4.55013 5.88846   6
  -4 -10  -3 2.29790 5.65697   3
  -4 -10  -3 4.54885 5.29468   5
   4 -10   3 3.41219 7.10974   2
  -4 -10  -3 0.57819 6.33063   6
  -4  10  -3 -5.2031 7.15165   1
   4  10   3 1.44511 6.32800   6
  -4  10  -3 -1.5268 5.06809   6
   4  10   3 5.15900 6.28618   6
  -4  10  -3 -12.232 4.97332   4
   4  10   3 2.46086 6.79791   6
   4  10   3 -2.9540 7.13751   4
  -6 -10  -3 70.6082 12.0926   6
   6 -10   3 70.0331 11.1949   2
  -6 -10  -3 59.0146 10.1268   3
  -6 -10  -3 80.4216 11.1797   6
  -6  10  -3 83.2010 8.15142   6
   6  10   3 64.1018 10.5558   4
   6  10   3 59.2367 8.85497   6
   6  10   3 74.4480 9.93588   6
   6  10   3 75.8134 11.0256   6
  -6  10  -3 82.7220 10.0139   4
  -6  10  -3 58.8422 11.3950   1
  -8 -10  -3 129.687 12.4774   3
   8 -10   3 98.7228 12.2402   2
  -8 -10  -3 130.889 13.5835   6
  -8  10  -3 127.532 11.8378   4
   8  10   3 139.045 14.2989   4
  -8  10  -3 138.830 15.7384   1
 -11 -11   3 -9.5287 7.27745   6
 -11 -11   3 3.62587 5.38895   3
  11 -11  -3 0.58841 15.2233   5
  11 -11  -3 -3.4988 5.29379   2
  11  11  -3 3.83348 7.15210   6
  11  11  -3 4.40338 6.31393   1
   9 -11  -3 1.24557 6.38993   2
  -9 -11   3 9.26750 6.35442   6
  -9 -11   3 10.4692 5.20189   3
   9 -11  -3 6.71239 8.87766   5
  -9  11   3 -1.8409 6.99306   4
   9  11  -3 18.7090 9.34628   4
  -9  11   3 12.9097 6.63806   6
   9  11  -3 25.9221 8.25224   1
   9  11  -3 20.2999 7.72108   6
  -7 -11   3 12.6293 7.73640   2
   7 -11  -3 31.1056 9.37800   5
  -7 -11   3 10.4614 5.04491   3
  -7 -11   3 8.89928 4.63895   6
  -7 -11   3 9.78497 5.37588   6
   7  11  -3 20.6586 7.95438   6
   7  11  -3 0.08672 7.22861   1
  -7  11   3 13.0917 7.28456   6
   7  11  -3 9.08430 8.05582   4
  -7  11   3 11.0288 9.07673   4
  -5 -11   3 7.44626 7.21841   2
   5 -11  -3 12.2104 7.55332   5
   5 -11  -3 -1.4749 5.72543   2
  -5 -11   3 -2.9574 3.70619   3
  -5 -11   3 -1.8861 3.45274   6
  -5 -11   3 -2.3048 3.59258   6
  -5  11   3 -2.2920 7.76442   4
  -5  11   3 14.5895 7.02343   6
   5  11  -3 -7.5162 6.76630   1
   5  11  -3 -4.4654 6.50176   4
   5  11  -3 4.56952 6.07619   6
  -3 -11   3 36.1451 8.75668   2
   3 -11  -3 28.9933 7.68050   2
   3 -11  -3 26.4334 3.39214   3
   3 -11  -3 27.8228 8.43892   5
   3  11  -3 19.7542 8.06658   1
  -3  11   3 39.4072 7.73608   6
   3  11  -3 50.9409 9.29781   6
  -3  11   3 27.5526 9.28484   4
   3  11  -3 23.7644 8.72971   4
   1 -11  -3 60.2380 7.09940   6
   1 -11  -3 73.0698 7.43070   6
  -1 -11   3 83.4105 11.2639   2
   1 -11  -3 63.1024 6.32678   3
   1 -11  -3 65.0899 10.1108   5
   1 -11  -3 57.1496 6.60949   3
   1  11  -3 68.3162 10.7470   4
  -1  11   3 59.3560 11.8256   4
  -1  11   3 65.7466 10.2584   6
   1  11  -3 80.8464 13.4991   6
   1  11  -3 50.5414 10.1860   1
  -1 -11  -3 13.3663 5.08054   3
   1 -11   3 23.7160 7.17469   2
  -1 -11  -3 1.94666 5.13153   3
  -1 -11  -3 15.6945 5.97882   6
  -1 -11  -3 28.7536 7.93389   6
  -1 -11  -3 33.3357 7.49773   5
   1  11   3 15.9010 8.82500   4
  -1  11  -3 16.6495 8.19653   4
  -1  11  -3 29.5143 7.46178   6
  -1  11  -3 9.86227 8.78519   1
   1  11   3 29.7781 8.79556   6
  -3 -11  -3 25.1130 9.37989   6
  -3 -11  -3 7.92430 6.76085   6
   3 -11   3 9.21452 6.64983   2
  -3 -11  -3 6.23068 5.25374   5
  -3 -11  -3 0.32697 5.14940   3
  -3  11  -3 -8.3725 5.93701   4
   3  11   3 2.97780 7.92601   4
  -3  11  -3 4.60526 5.14470   6
   3  11   3 5.12580 7.63850   6
  -3  11  -3 -1.5127 8.02644   1
   5 -11   3 21.4586 8.22272   2
  -5 -11  -3 14.6733 11.9205   6
  -5 -11  -3 10.8368 5.76701   3
   5  11   3 3.23264 9.02398   4
  -5  11  -3 12.4619 7.04756   4
  -5  11  -3 4.54722 13.6381   1
   5  11   3 9.10572 6.94049   6
   6 -12  -3 20.9227 6.88837   2
   6 -12  -3 10.7204 8.58057   5
  -6 -12   3 -3.4241 7.04567   3
  -6 -12   3 1.43584 7.77622   2
  -6 -12   3 17.3526 4.19414   6
  -6 -12   3 16.8368 4.38836   6
   6  12  -3 8.96581 7.64407   1
  -6  12   3 7.66684 6.93948   6
   6  12  -3 15.3906 7.53576   6
  -6  12   3 15.6325 9.41722   4
   4 -12  -3 32.2069 8.78180   5
  -4 -12   3 32.7990 8.76051   2
   4 -12  -3 12.7284 7.15324   2
   4  12  -3 23.8902 8.95148   4
   4  12  -3 22.5381 8.56844   6
  -4  12   3 20.2537 7.08918   6
   4  12  -3 14.0529 7.85137   1
  -4  12   3 28.2432 10.1640   4
  -2 -12   3 6.39093 12.3877   2
   2 -12  -3 8.93428 7.01347   5
   2  12  -3 15.0355 8.21666   4
   2  12  -3 -1.1949 5.69664   6
   2  12  -3 0.19678 12.7545   1
  -2  12   3 6.64120 8.56758   4
   0 -12  -3 13.9375 7.31088   6
   0 -12   3 -4.4199 10.3580   2
   0 -12  -3 2.50011 6.27949   5
   0 -12  -3 -1.2266 4.30780   6
   0  12   3 20.3937 7.95420   6
   0  12  -3 -2.6787 6.86814   1
   0  12   3 1.91746 8.27418   4
   0  12  -3 9.10976 7.83147   4
   0  12  -3 23.2496 7.39635   6
 -24   0   4 -2.0487 8.03073   3
  24   0  -4 3.81093 5.47117   5
  22   0  -4 25.3720 6.19364   5
 -22   0   4 18.6029 7.69902   3
 -22   0   4 29.0845 5.05178   6
  20   0  -4 -2.5479 5.33885   5
 -20   0   4 -2.7228 5.72982   3
 -20   0   4 1.99271 3.88046   6
 -18   0   4 805.601 16.9909   1
 -18   0   4 833.579 26.5167   3
 -18   0   4 824.088 20.2853   6
  18   0  -4 850.446 22.7636   5
 -16   0   4 641.807 21.9570   3
 -16   0   4 623.944 16.7242   6
  16   0  -4 660.180 19.2779   5
 -16   0   4 678.319 20.3661   1
 -14   0   4 -1.1003 3.34818   6
 -14   0   4 -0.1389 5.43896   3
 -14   0   4 1.55715 3.08676   1
  14   0  -4 5.84235 7.01465   3
  14   0  -4 0.60846 4.85866   5
 -12   0   4 537.023 14.2081   6
  12   0  -4 535.639 17.2253   3
 -12   0   4 528.678 17.6107   3
  12   0  -4 501.057 15.8917   5
 -12   0   4 548.220 14.3618   6
 -12   0   4 545.889 14.3818   1
  10   0  -4 39.4576 5.10218   1
  10   0  -4 45.3882 6.64146   3
  10   0  -4 43.1061 3.62299   6
 -10   0   4 44.1144 5.13985   6
 -10   0   4 62.0076 7.52645   6
  10   0  -4 36.2375 3.80834   6
 -10   0   4 49.7461 5.31711   1
   8   0  -4 34.3616 5.37455   3
   8   0  -4 48.9448 5.30776   6
  -8   0   4 45.6526 5.19185   6
  -8   0   4 53.1413 5.94478   1
  -8   0   4 36.8107 5.40292   3
  -8   0   4 45.1625 5.40779   6
   8   0  -4 40.3038 5.27381   1
  -6   0   4 42.1680 4.97028   6
  -6   0   4 33.5292 3.46669   2
  -6   0   4 38.4027 5.76370   3
   6   0  -4 37.8271 4.53653   6
   6   0  -4 31.7604 4.89639   3
   6   0  -4 25.7434 4.58809   1
   6   0  -4 41.9917 4.85988   6
  -6   0   4 39.9017 4.86718   6
  -6   0   4 39.1892 4.97264   1
   4   0  -4 1781.04 35.3555   3
  -4   0   4 1790.75 35.4655   3
  -4   0   4 1730.57 33.7513   6
  -4   0   4 1784.64 33.7941   6
   4   0  -4 1836.92 36.3787   1
  -4   0   4 1833.21 36.1277   1
   4   0  -4 1729.62 33.8213   6
  -4   0   4 1737.87 32.1611   2
   4   0  -4 1778.90 32.1598   2
   2   0  -4 5745.50 98.3043   6
  -2   0   4 5797.31 100.867   1
   2   0  -4 5880.16 98.1583   2
  -2   0   4 5715.13 97.5146   6
  -2   0   4 5699.02 98.0352   2
   2   0  -4 5749.08 100.143   3
  -2   0   4 5794.36 96.1736   4
   2   0  -4 5814.56 98.4755   6
  -2   0   4 5909.46 97.8566   6
   2   0  -4 5872.75 101.224   1
   0   0   4 37.2457 5.85367   1
   0   0  -4 31.2075 5.20658   3
   0   0  -4 41.0211 4.75145   6
   0   0   4 34.7844 3.88810   4
   0   0  -4 27.7586 5.22756   1
   0   0   4 36.4869 3.62497   6
   0   0  -4 37.2606 4.91282   2
   0   0  -4 37.8453 4.83197   6
   0   0   4 42.9924 5.06685   2
  -2   0  -4 8246.41 137.795   6
   2   0   4 8247.32 141.057   2
   2   0   4 8404.71 142.145   1
  -2   0  -4 8262.68 137.801   6
  -2   0  -4 8244.77 142.000   1
  -2   0  -4 8354.36 141.259   2
  -4   0  -4 939.760 23.5900   1
  -4   0  -4 936.332 19.4993   6
   4   0   4 920.448 23.2429   1
  -6   0  -4 298.693 9.08406   6
  -6   0  -4 322.416 13.3090   1
  -6   0  -4 298.679 7.61509   4
   6   0   4 301.229 12.2434   1
  -6   0  -4 304.133 12.6366   2
  -6   0  -4 295.884 9.00881   6
   8   0   4 743.894 20.7823   1
  -8   0  -4 756.571 17.1673   6
  -8   0  -4 771.995 19.5098   5
  -8   0  -4 786.400 22.1789   1
  -8   0  -4 759.141 16.3389   4
 -10   0  -4 -3.1295 2.97782   6
 -10   0  -4 -1.0961 4.71407   1
 -10   0  -4 -0.2465 3.06979   4
 -10   0  -4 -2.6195 3.96964   5
 -12   0  -4 163.199 10.8734   1
 -12   0  -4 158.036 7.44742   6
  12   0   4 133.818 10.0328   1
 -12   0  -4 142.928 7.76243   4
 -14   0  -4 162.835 14.1128   3
 -14   0  -4 163.596 11.2614   1
 -14   0  -4 159.299 9.40195   5
 -14   0  -4 153.247 8.16328   6
 -14   0  -4 146.666 8.60041   4
 -16   0  -4 161.584 14.2685   3
 -16   0  -4 132.115 10.4969   1
 -23  -1   4 11.4457 7.40894   3
  23  -1  -4 25.0559 6.97519   5
 -23   1   4 15.8067 8.43092   3
  23   1  -4 13.5987 5.39161   5
  21  -1  -4 -0.0234 5.85967   5
 -21  -1   4 -0.7314 6.46414   3
 -21  -1   4 8.26872 4.72771   6
 -21   1   4 -2.9626 2.42673   1
  21   1  -4 -1.2178 4.92710   5
 -21   1   4 2.64065 6.60391   3
 -21   1   4 6.20954 3.60921   6
 -21   1   4 1.78345 2.24016   1
 -19  -1   4 38.4653 8.69706   3
 -19  -1   4 39.8755 5.85887   6
  19  -1  -4 40.6556 7.18114   5
 -19   1   4 33.6327 4.27140   1
 -19   1   4 49.1862 6.79262   6
  19   1  -4 52.5221 7.40731   5
 -19   1   4 30.3663 6.37146   2
  17  -1  -4 837.730 23.4726   5
 -17  -1   4 823.204 21.3434   6
 -17  -1   4 858.057 26.7973   3
 -17  -1   4 811.194 16.0113   1
 -17   1   4 860.198 20.7500   2
 -17   1   4 858.497 20.0871   1
 -17   1   4 839.033 19.5845   6
  17   1  -4 872.001 22.4814   5
 -17   1   4 859.572 26.2813   3
  15  -1  -4 1245.03 29.3769   5
 -15  -1   4 1248.63 32.3856   3
 -15  -1   4 1199.41 26.9995   6
 -15  -1   4 1203.09 23.9422   1
 -15   1   4 1188.44 25.0443   6
 -15   1   4 1257.17 31.6788   3
  15   1  -4 1283.76 31.2596   5
 -15   1   4 1211.86 26.5092   1
 -15   1   4 1166.07 25.2198   2
 -13  -1   4 41.5239 7.01516   3
 -13  -1   4 48.5360 5.26905   1
 -13  -1   4 48.6592 5.55727   6
  13  -1  -4 56.9195 7.22533   5
  13  -1  -4 46.1449 6.75977   3
 -13  -1   4 51.5031 6.69570   6
 -13   1   4 50.5445 5.21246   6
  13   1  -4 58.2710 6.72543   5
 -13   1   4 50.8446 7.05217   3
  13   1  -4 46.7930 4.76423   1
 -13   1   4 41.9440 5.20609   1
  13   1  -4 46.8093 7.33555   3
 -13   1   4 53.2832 5.08384   6
 -11  -1   4 673.051 17.4550   6
 -11  -1   4 710.940 20.4580   3
 -11  -1   4 694.361 18.9559   6
 -11  -1   4 697.663 16.7065   1
  11  -1  -4 660.121 19.2191   3
  11   1  -4 670.944 16.7499   1
 -11   1   4 701.930 17.8461   1
  11   1  -4 692.673 14.4237   6
 -11   1   4 687.974 16.4067   6
  11   1  -4 712.071 16.4091   6
 -11   1   4 673.468 13.8853   2
 -11   1   4 724.561 20.3277   3
  -9  -1   4 53.1372 5.77092   6
  -9  -1   4 55.5963 6.14882   6
   9  -1  -4 44.4869 6.11371   5
  -9  -1   4 56.8618 5.78120   1
  -9  -1   4 64.6741 7.06302   3
   9  -1  -4 57.9693 3.78607   6
   9  -1  -4 56.0666 3.54994   6
   9  -1  -4 56.2621 6.70177   1
   9  -1  -4 53.7849 6.23931   3
   9   1  -4 53.4724 5.76643   6
  -9   1   4 57.6290 6.10066   1
   9   1  -4 50.6422 6.12646   3
   9   1  -4 63.9825 6.46850   1
  -9   1   4 55.5822 5.79430   6
  -9   1   4 65.1033 7.13228   3
  -9   1   4 63.3528 5.67954   6
  -7  -1   4 1856.74 36.6870   6
  -7  -1   4 1882.54 34.9813   2
   7  -1  -4 1929.57 38.2053   3
   7  -1  -4 1952.12 35.3043   6
  -7  -1   4 1910.71 37.5441   1
   7  -1  -4 1970.11 35.3316   6
  -7  -1   4 1913.55 36.7720   6
  -7  -1   4 1966.94 38.9564   3
   7  -1  -4 1855.98 38.1771   1
  -7   1   4 1958.33 36.5411   6
   7   1  -4 1938.15 36.4350   6
  -7   1   4 1938.36 38.3217   3
  -7   1   4 1979.92 36.6510   6
   7   1  -4 1881.80 36.0620   6
   7   1  -4 1874.59 37.6061   1
  -7   1   4 1976.55 38.6264   1
   7   1  -4 1919.49 38.5338   3
  -5  -1   4 6.63832 2.93872   2
   5  -1  -4 4.29337 3.32500   6
   5  -1  -4 8.69834 4.59024   1
   5  -1  -4 1.72773 4.06951   3
   5  -1  -4 6.97826 3.70671   6
  -5  -1   4 2.13363 3.81351   1
  -5  -1   4 8.27642 4.51682   3
   5  -1  -4 3.52314 1.95176   2
  -5  -1   4 4.68642 3.67617   6
  -5  -1   4 4.79317 3.40643   6
   5   1  -4 7.24115 4.54346   6
  -5   1   4 2.94358 3.51966   6
   5   1  -4 11.0381 4.56323   3
  -5   1   4 4.96078 3.65671   6
   5   1  -4 3.58929 3.68169   6
  -5   1   4 1.85175 3.67280   1
   5   1  -4 3.05620 3.91917   1
  -5   1   4 3.95259 4.43024   3
  -5   1   4 10.4437 3.81187   4
  -3  -1   4 48.9204 5.30499   6
   3  -1  -4 51.7825 4.22703   2
  -3  -1   4 48.0929 5.28599   2
   3  -1  -4 58.9620 6.86040   1
  -3  -1   4 57.8822 6.67931   3
   3  -1  -4 48.2096 5.59644   6
  -3  -1   4 46.8326 5.37207   6
   3  -1  -4 54.1220 5.41101   6
   3  -1  -4 45.0274 5.47018   3
  -3  -1   4 58.2315 6.29061   1
  -3   1   4 51.5775 6.01290   1
  -3   1   4 53.2865 5.95174   6
  -3   1   4 53.6287 5.10351   4
   3   1  -4 50.8728 4.91049   2
   3   1  -4 51.7309 5.75401   6
   3   1  -4 58.5954 6.60492   3
   3   1  -4 66.6673 5.87685   6
  -3   1   4 45.8006 5.44724   6
   3   1  -4 62.7959 6.46137   1
  -1  -1   4 240.715 9.36423   2
   1  -1  -4 246.218 11.0750   1
  -1  -1   4 235.502 7.15703   6
  -1  -1   4 230.986 10.1774   1
   1  -1  -4 234.988 10.1240   3
   1  -1  -4 232.066 7.44445   4
  -1  -1   4 240.807 7.36499   6
   1  -1  -4 236.059 9.25336   6
   1  -1  -4 237.245 8.61156   2
   1  -1  -4 245.455 9.39292   6
   1   1  -4 248.295 11.1442   1
   1   1  -4 245.674 9.39778   2
  -1   1   4 247.755 8.71134   6
   1   1  -4 238.318 8.63843   6
  -1   1   4 240.593 8.75272   6
  -1   1   4 230.024 7.52167   4
  -1   1   4 245.974 10.7309   1
   1   1  -4 240.250 9.77402   3
   1   1  -4 228.322 8.42964   6
  -1  -1  -4 4832.29 81.3363   4
   1  -1   4 4845.11 87.0907   1
  -1  -1  -4 4807.66 85.1637   2
  -1  -1  -4 4845.02 87.0578   1
  -1  -1  -4 4954.41 84.9922   6
  -1  -1  -4 4880.88 84.0607   6
   1  -1   4 4893.14 86.0596   2
   1   1   4 4923.34 87.0310   1
  -1   1  -4 4804.10 82.5894   6
  -1   1  -4 4925.90 87.5587   1
   1   1   4 4856.48 81.3680   4
  -1   1  -4 4845.47 82.6064   6
   1   1   4 4860.30 81.9410   6
  -1   1  -4 4818.96 85.7436   2
   1   1   4 5071.25 83.1922   6
   3  -1   4 5080.83 91.3575   2
  -3  -1  -4 5097.02 88.1288   6
  -3  -1  -4 5138.81 85.4908   4
   3  -1   4 5106.29 91.7766   1
  -3  -1  -4 5224.91 91.7633   1
  -3  -1  -4 5150.63 88.1934   6
  -3  -1  -4 5182.73 91.3244   2
  -3   1  -4 5069.89 85.9645   6
   3   1   4 5181.20 85.5371   4
  -3   1  -4 5240.66 92.3221   1
   3   1   4 4993.08 91.0216   1
  -3   1  -4 5107.42 91.4189   2
  -3   1  -4 5137.96 86.0375   6
  -5  -1  -4 165.749 7.81290   6
   5  -1   4 164.746 10.0355   2
   5  -1   4 180.496 10.0545   1
  -5  -1  -4 169.870 8.15392   6
  -5  -1  -4 169.338 6.56509   4
  -5  -1  -4 177.241 9.87065   2
  -5  -1  -4 192.741 10.3270   1
  -5   1  -4 179.904 10.1835   2
  -5   1  -4 177.476 6.03269   6
   5   1   4 168.250 9.87956   1
   7  -1   4 217.916 11.4727   1
  -7  -1  -4 231.832 11.9786   1
  -7  -1  -4 204.763 8.78808   4
  -7  -1  -4 219.204 9.05561   6
   7   1   4 213.523 10.9679   1
  -7   1  -4 212.505 10.4638   5
  -7   1  -4 239.448 12.4757   1
  -9  -1  -4 218.916 16.0837   1
  -9  -1  -4 219.594 9.37686   5
   9  -1   4 211.763 11.7921   1
  -9  -1  -4 209.367 8.80106   4
  -9  -1  -4 211.637 9.40312   6
  -9   1  -4 229.308 12.0608   1
  -9   1  -4 203.573 7.07348   4
  -9   1  -4 209.131 10.4580   5
   9   1   4 213.189 11.0179   1
  -9   1  -4 222.310 7.23946   4
 -11  -1  -4 181.739 9.06754   4
 -11  -1  -4 207.606 11.9414   1
 -11  -1  -4 200.717 9.52988   6
  11  -1   4 197.622 11.6043   1
 -11  -1  -4 200.789 9.28005   5
 -11   1  -4 194.116 7.69866   4
 -11   1  -4 186.562 7.67129   4
 -11   1  -4 211.710 12.1575   1
 -11   1  -4 200.319 10.7045   5
  11   1   4 202.749 10.5785   1
 -13  -1  -4 162.139 9.20850   4
 -13  -1  -4 171.957 8.55027   5
 -13  -1  -4 205.568 11.5585   1
 -13   1  -4 198.077 11.9694   1
 -13   1  -4 184.880 8.34650   4
 -13   1  -4 192.786 8.65452   4
  13   1   4 172.686 13.2430   1
 -15  -1  -4 12.0094 5.25522   6
 -15  -1  -4 10.0972 5.21784   1
 -15  -1  -4 -5.0524 4.24466   4
 -15  -1  -4 -1.2231 7.00189   3
 -15   1  -4 13.4403 5.62686   1
 -15   1  -4 8.43696 3.94204   4
 -15   1  -4 2.87608 4.04129   4
 -15   1  -4 14.7896 3.21380   6
 -15   1  -4 7.46281 7.33947   3
 -17  -1  -4 15.4330 7.75121   3
 -17   1  -4 -3.1965 5.29950   1
 -17   1  -4 17.4751 8.51628   3
 -17   1  -4 9.87229 4.49986   4
  24  -2  -4 7.91199 6.29350   5
 -24  -2   4 11.7885 8.57526   3
  24   2  -4 9.24240 4.85248   5
 -24   2   4 3.50084 7.64538   3
 -24   2   4 3.70777 6.87411   4
 -22  -2   4 -6.5095 6.37509   3
  22  -2  -4 4.44059 6.83665   5
 -22  -2   4 17.8072 8.76519   6
 -22   2   4 -2.9515 3.15529   1
 -22   2   4 -1.6149 6.67293   3
 -22   2   4 -4.3903 3.15339   1
 -22   2   4 10.4721 3.98448   6
  22   2  -4 6.22961 4.23214   5
  20  -2  -4 51.4136 8.53575   5
 -20  -2   4 45.7030 9.29421   3
 -20   2   4 42.7953 5.93349   2
 -20   2   4 50.0493 9.89077   3
 -20   2   4 57.8625 5.60524   6
 -20   2   4 39.3582 5.32538   1
  20   2  -4 60.9334 7.28352   5
 -18  -2   4 52.6201 10.0099   6
 -18  -2   4 41.9305 8.51860   3
  18  -2  -4 55.5493 8.26831   5
 -18   2   4 56.0228 6.01288   2
 -18   2   4 55.1319 5.39899   6
 -18   2   4 53.0838 8.91083   3
  18   2  -4 59.6677 7.27929   5
 -18   2   4 49.7677 6.12632   1
  16  -2  -4 19.1983 6.66827   5
 -16  -2   4 29.0283 7.31104   3
 -16  -2   4 29.6068 6.11326   6
 -16   2   4 25.1978 4.24336   2
 -16   2   4 22.1723 5.05621   1
  16   2  -4 10.3678 5.26961   5
 -16   2   4 30.6928 7.30371   3
 -16   2   4 27.8613 4.30130   6
 -14  -2   4 69.3454 7.60795   6
  14  -2  -4 88.2804 9.31354   5
 -14  -2   4 67.8507 8.54870   3
  14  -2  -4 82.6564 8.53741   3
 -14  -2   4 78.3343 5.09111   1
 -14   2   4 69.8088 7.23680   1
  14   2  -4 80.2961 7.63206   5
 -14   2   4 81.5108 9.00878   3
 -14   2   4 70.1133 5.54203   2
 -14   2   4 64.9773 5.47361   6
  14   2  -4 83.0094 5.63049   1
  12  -2  -4 602.367 18.2760   3
 -12  -2   4 608.910 19.8517   3
  12  -2  -4 613.287 18.6762   5
 -12  -2   4 588.685 16.6317   6
 -12  -2   4 581.378 16.7197   6
 -12  -2   4 622.993 15.0649   1
  12   2  -4 591.923 15.0964   1
  12   2  -4 620.082 14.0316   6
  12   2  -4 585.931 19.0663   3
 -12   2   4 602.071 12.4664   2
 -12   2   4 594.971 14.6037   6
  12   2  -4 603.526 13.8305   6
 -12   2   4 589.873 17.2128   1
 -12   2   4 617.518 14.7041   6
 -12   2   4 637.981 18.7281   3
 -10  -2   4 873.564 20.2875   1
  10  -2  -4 907.376 22.3620   3
  10  -2  -4 873.300 22.7926   5
 -10  -2   4 890.472 21.4654   6
 -10  -2   4 917.921 23.7623   3
 -10  -2   4 856.323 21.0210   6
  10   2  -4 938.346 20.2141   6
  10   2  -4 910.475 20.7541   1
  10   2  -4 883.167 23.1286   3
 -10   2   4 918.435 22.6612   3
 -10   2   4 900.140 22.9590   4
 -10   2   4 866.505 22.0608   1
 -10   2   4 940.857 22.6480   6
 -10   2   4 870.208 19.4400   6
  -8  -2   4 7.22719 4.22206   6
  -8  -2   4 16.0867 4.82531   3
   8  -2  -4 4.29556 4.50483   5
   8  -2  -4 7.51853 4.31593   3
   8  -2  -4 16.6119 2.67037   6
  -8  -2   4 9.94521 3.97217   6
  -8  -2   4 14.9240 4.06603   1
   8  -2  -4 13.0290 2.75649   6
  -8   2   4 10.4894 3.63684   6
  -8   2   4 9.03070 4.54396   1
   8   2  -4 16.4529 5.14580   3
  -8   2   4 11.3068 4.72250   4
   8   2  -4 12.9954 4.27024   6
   8   2  -4 9.71897 3.93418   1
   8   2  -4 6.80671 3.75414   6
  -8   2   4 8.12541 4.20756   3
  -8   2   4 12.4637 3.85654   6
   6  -2  -4 43.0379 4.70194   6
   6  -2  -4 47.4941 6.26100   1
   6  -2  -4 36.8537 5.30325   3
  -6  -2   4 35.2418 4.44719   2
  -6  -2   4 31.0448 4.80947   1
  -6  -2   4 31.3547 5.28786   6
  -6  -2   4 43.3631 5.46103   6
  -6  -2   4 32.9698 5.67365   3
  -6   2   4 38.5566 5.60458   3
   6   2  -4 42.2817 5.68939   3
  -6   2   4 41.6143 5.20970   6
   6   2  -4 38.1120 5.49680   1
   6   2  -4 42.3716 5.15427   6
  -6   2   4 34.9826 5.35663   1
   6   2  -4 26.0185 4.71122   6
  -6   2   4 35.5415 5.04804   4
  -6   2   4 40.7389 5.21214   6
   4  -2  -4 476.127 12.8811   6
   4  -2  -4 472.254 12.9489   6
   4  -2  -4 472.359 13.1012   4
  -4  -2   4 459.373 12.5245   6
  -4  -2   4 445.469 13.9501   1
   4  -2  -4 472.980 13.9965   3
  -4  -2   4 452.876 12.9415   2
  -4  -2   4 472.634 14.1507   3
  -4  -2   4 470.380 12.6903   6
   4  -2  -4 458.311 12.9050   6
   4  -2  -4 460.721 10.5074   2
   4  -2  -4 483.697 15.1715   1
   4   2  -4 461.342 13.8832   3
   4   2  -4 485.488 12.9836   2
   4   2  -4 454.538 12.9091   6
  -4   2   4 467.193 15.0882   1
  -4   2   4 456.367 13.1692   6
   4   2  -4 488.076 15.0175   1
  -4   2   4 451.822 13.2880   4
   4   2  -4 434.394 12.8584   6
  -4   2   4 455.045 13.7761   3
  -4   2   4 471.736 13.5548   6
  -2  -2   4 36.0733 5.40912   1
   2  -2  -4 40.2616 4.55500   4
   2  -2  -4 41.0830 4.43633   2
   2  -2  -4 48.6889 5.72470   6
  -2  -2   4 52.4569 5.60895   2
  -2  -2   4 45.2972 4.19667   6
   2  -2  -4 50.4652 6.89113   1
   2  -2  -4 39.8362 5.49996   6
  -2  -2   4 42.9778 4.18370   4
  -2  -2   4 47.9482 4.27341   6
   2  -2  -4 38.3255 5.59588   3
   2  -2  -4 45.6956 5.58560   6
  -2  -2   4 37.0183 5.56731   3
   2   2  -4 48.7852 5.09395   6
   2   2  -4 38.7358 4.86952   3
  -2   2   4 46.3719 5.36372   6
  -2   2   4 52.0235 5.57237   6
   2   2  -4 52.4479 6.24509   6
  -2   2   4 50.6499 4.95416   4
   2   2  -4 41.1695 5.95045   1
   2   2  -4 45.3796 5.43535   2
  -2   2   4 39.1498 6.05577   1
   0  -2   4 223.434 10.0567   2
   0  -2   4 208.275 10.2301   1
   0  -2  -4 211.014 9.57751   6
   0  -2  -4 217.446 9.44446   6
   0  -2  -4 224.444 11.3008   1
   0  -2   4 218.986 5.80020   4
   0  -2  -4 223.745 8.22288   4
   0  -2  -4 216.454 9.09452   2
   0   2   4 215.038 8.71372   6
   0   2  -4 216.489 8.01772   6
   0   2  -4 223.840 11.2533   1
   0   2  -4 220.848 9.39489   2
   0   2  -4 216.708 7.96408   6
   0   2   4 209.088 10.5471   1
   0   2   4 224.801 8.20553   4
   0   2  -4 218.765 9.79570   3
   0   2   4 210.243 8.55425   6
  -2  -2  -4 210.558 11.0601   1
   2  -2   4 208.842 11.0844   1
  -2  -2  -4 202.275 9.22564   6
  -2  -2  -4 200.749 7.67195   4
  -2  -2  -4 190.311 9.70455   2
  -2  -2  -4 200.605 9.49155   6
   2  -2   4 195.274 11.2946   2
   2   2   4 206.035 7.86976   4
   2   2   4 204.219 8.83904   6
  -2   2  -4 203.420 11.4342   1
  -2   2  -4 196.168 6.95184   6
   2   2   4 204.754 7.63508   6
  -2   2  -4 187.934 9.47631   2
  -2   2  -4 193.543 6.85356   6
   2   2   4 187.323 10.0184   1
  -4  -2  -4 1.32364 4.58231   1
   4  -2   4 0.36357 4.54342   1
  -4  -2  -4 -7.6477 3.41432   2
   4  -2   4 3.99249 4.64711   2
  -4  -2  -4 2.79057 3.87010   6
  -4  -2  -4 -2.7884 4.79990   6
  -4  -2  -4 2.58041 3.02748   4
   4   2   4 1.14089 4.16908   1
  -4   2  -4 -4.8081 4.59485   1
  -4   2  -4 9.08277 4.43765   2
   4   2   4 5.03610 3.35869   4
   6  -2   4 203.572 11.7866   2
  -6  -2  -4 199.397 9.75445   6
  -6  -2  -4 200.194 8.42024   4
   6  -2   4 200.399 11.2869   1
  -6  -2  -4 212.171 11.3236   1
  -6   2  -4 210.549 12.0132   1
   6   2   4 211.324 10.7792   1
  -6   2  -4 186.967 10.2633   5
  -8  -2  -4 30.1261 4.71639   5
  -8  -2  -4 21.3060 4.70206   4
  -8  -2  -4 28.4006 7.08291   1
  -8  -2  -4 35.0756 6.12782   6
   8  -2   4 21.3960 5.86247   1
   8  -2   4 14.3870 6.06447   2
  -8   2  -4 25.4443 6.40642   1
  -8   2  -4 33.7725 6.50507   5
  -8   2  -4 22.2236 2.93221   4
   8   2   4 32.6807 5.96224   1
 -10  -2  -4 7.27234 8.43844   1
 -10  -2  -4 1.77323 4.81680   6
 -10  -2  -4 2.57065 4.05909   4
 -10  -2  -4 5.27003 3.42955   5
  10  -2   4 3.75065 4.74928   1
 -10   2  -4 1.23302 2.81412   4
 -10   2  -4 8.75925 5.34613   1
  10   2   4 -1.1093 4.24944   1
 -12  -2  -4 19.8968 5.77926   6
 -12  -2  -4 20.7114 6.21266   1
 -12  -2  -4 32.8490 6.52409   6
 -12  -2  -4 21.2510 4.16250   5
 -12  -2  -4 24.1980 5.24674   4
 -12   2  -4 16.3695 3.56249   4
  12   2   4 24.5235 5.03304   1
 -12   2  -4 19.7352 4.04051   4
 -12   2  -4 34.3852 7.11786   1
 -14  -2  -4 -1.3745 6.74960   3
 -14  -2  -4 -1.7853 4.83558   6
 -14  -2  -4 6.58136 3.09246   5
 -14  -2  -4 -1.9008 4.86717   6
 -14  -2  -4 -2.9964 4.40627   4
 -14   2  -4 -2.9621 3.02556   4
 -14   2  -4 -9.3187 5.79685   3
 -14   2  -4 -0.2858 3.58540   4
 -14   2  -4 5.97922 5.18450   1
  14   2   4 -5.4577 3.80572   1
 -16   2  -4 15.0301 8.05356   3
 -16   2  -4 6.58232 5.49421   1
 -23  -3   4 19.9794 11.2259   3
  23  -3  -4 38.6664 8.63344   5
 -23  -3   4 32.1923 7.38912   6
 -23   3   4 42.3666 9.54307   3
 -23   3   4 35.6922 8.87722   4
 -21  -3   4 4.73008 5.57683   6
 -21  -3   4 2.46704 7.29884   3
  21  -3  -4 11.1180 6.84349   5
 -21   3   4 -0.0030 6.49600   3
 -21   3   4 1.94050 6.42242   4
 -21   3   4 -10.221 3.95675   1
 -21   3   4 -7.2806 3.51887   2
 -19  -3   4 35.6800 8.87060   3
 -19  -3   4 52.0754 7.71897   6
  19  -3  -4 56.0990 9.21535   5
 -19   3   4 45.2736 5.72224   2
 -19   3   4 55.4528 8.73828   4
 -19   3   4 60.2549 5.20482   6
 -19   3   4 48.4823 8.41907   3
  19   3  -4 51.2212 6.79133   5
 -19   3   4 36.3394 7.25788   1
  17  -3  -4 133.993 11.8428   5
 -17  -3   4 125.037 10.3072   6
 -17   3   4 162.975 12.4811   4
  17   3  -4 133.465 8.78132   5
 -17   3   4 132.400 9.67884   1
 -17   3   4 146.631 7.62030   2
 -17   3   4 144.072 11.5330   3
 -17   3   4 140.663 6.53993   6
 -15  -3   4 350.579 16.7552   3
  15  -3  -4 330.862 14.4764   3
  15  -3  -4 366.072 15.9581   5
 -15  -3   4 333.245 13.9081   6
  15   3  -4 336.822 12.4845   5
 -15   3   4 348.181 15.9174   4
 -15   3   4 351.834 14.9332   3
  15   3  -4 337.760 9.47521   1
 -15   3   4 337.567 10.0910   2
 -15   3   4 319.672 13.5803   1
 -15   3   4 339.594 9.96482   6
 -13  -3   4 468.850 15.7108   6
  13  -3  -4 506.494 17.6817   5
 -13  -3   4 496.716 16.1617   6
 -13  -3   4 473.673 12.7602   1
 -13  -3   4 504.673 18.2558   3
  13  -3  -4 486.558 18.5500   3
 -13   3   4 477.395 17.2295   4
  13   3  -4 488.116 12.9664   6
 -13   3   4 493.449 11.3018   2
 -13   3   4 479.781 16.2161   1
 -13   3   4 495.112 12.5857   6
  13   3  -4 505.958 13.2780   1
  13   3  -4 493.801 12.9334   6
 -13   3   4 502.790 16.6341   3
  11  -3  -4 15.1840 5.87716   5
 -11  -3   4 -2.3724 4.54768   3
 -11  -3   4 0.07923 4.12665   6
  11  -3  -4 2.49915 4.07129   3
 -11  -3   4 -2.1608 3.89922   6
 -11  -3   4 -5.5338 2.75872   1
 -11   3   4 1.25346 3.28321   6
  11   3  -4 2.61768 4.66299   3
 -11   3   4 -0.7450 4.31049   3
  11   3  -4 0.11304 3.18755   1
  11   3  -4 0.75916 3.75881   6
 -11   3   4 -0.3348 4.34759   1
 -11   3   4 -6.4714 4.25623   4
 -11   3   4 1.57807 3.17976   6
 -11   3   4 2.23821 3.12078   6
   9  -3  -4 681.326 18.3404   3
  -9  -3   4 688.498 19.8697   3
  -9  -3   4 690.588 19.5171   4
  -9  -3   4 665.056 18.2003   6
  -9  -3   4 679.931 17.6395   1
  -9  -3   4 692.395 18.5255   6
   9  -3  -4 719.691 19.9305   5
  -9   3   4 694.022 19.7307   4
   9   3  -4 692.352 17.7619   6
  -9   3   4 687.953 16.5889   6
  -9   3   4 707.055 18.5312   3
   9   3  -4 697.458 17.9871   1
   9   3  -4 681.430 19.7776   3
  -9   3   4 689.303 19.9601   1
   9   3  -4 718.807 18.1370   6
  -7  -3   4 694.472 18.2484   1
   7  -3  -4 688.266 17.7536   3
  -7  -3   4 703.342 18.4217   4
   7  -3  -4 690.934 14.3781   6
   7  -3  -4 690.555 14.4725   6
  -7  -3   4 663.628 18.7971   3
  -7  -3   4 686.500 17.7562   6
  -7  -3   4 678.438 17.6481   6
  -7   3   4 685.774 17.9948   3
  -7   3   4 707.556 17.6706   6
   7   3  -4 671.891 17.4099   6
   7   3  -4 664.811 18.2984   1
  -7   3   4 689.797 20.1303   1
  -7   3   4 710.614 19.2885   4
   7   3  -4 706.389 17.9343   6
  -7   3   4 694.911 16.9978   6
  -7   3   4 694.261 17.0197   6
   7   3  -4 672.891 18.1972   3
   5  -3  -4 1237.68 26.3582   3
  -5  -3   4 1212.88 25.7689   4
   5  -3  -4 1176.72 26.4284   4
  -5  -3   4 1191.10 26.0520   2
  -5  -3   4 1162.91 26.4519   3
  -5  -3   4 1164.19 27.0063   1
   5  -3  -4 1190.20 24.4382   6
  -5  -3   4 1229.15 25.3864   6
  -5  -3   4 1168.91 24.9845   6
   5  -3  -4 1221.04 26.9891   5
   5  -3  -4 1256.81 24.8696   6
  -5   3   4 1188.82 25.8493   6
   5   3  -4 1188.48 27.5671   1
   5   3  -4 1201.12 26.3187   3
   5   3  -4 1175.84 25.9325   6
   5   3  -4 1200.96 25.6364   6
  -5   3   4 1216.36 26.7539   4
  -5   3   4 1201.63 28.2139   1
  -5   3   4 1173.03 25.4134   6
  -5   3   4 1239.35 26.6741   3
   3  -3  -4 369.731 12.0910   4
   3  -3  -4 348.842 11.8840   6
  -3  -3   4 351.659 12.3086   2
   3  -3  -4 359.867 12.2277   5
  -3  -3   4 361.893 10.8559   4
  -3  -3   4 362.971 10.2546   6
  -3  -3   4 360.832 12.2568   3
   3  -3  -4 355.693 12.4382   3
  -3  -3   4 350.476 13.4003   1
   3  -3  -4 362.797 11.7411   6
  -3   3   4 374.707 12.1577   6
   3   3  -4 369.573 12.3287   2
  -3   3   4 343.140 12.0325   6
   3   3  -4 344.381 11.7679   3
   3   3  -4 359.381 13.6951   1
  -3   3   4 355.036 12.1731   4
   3   3  -4 351.759 11.4031   6
   3   3  -4 360.894 11.5056   6
  -3   3   4 364.770 13.5225   1
   1  -3  -4 141.040 8.64028   6
  -1  -3   4 150.095 8.35648   2
  -1  -3   4 151.058 9.06613   1
  -1  -3   4 145.090 6.27484   4
   1  -3  -4 141.390 10.1144   1
   1  -3  -4 134.522 7.70250   4
   1  -3  -4 143.576 8.44536   6
   1   3  -4 133.122 9.79930   1
   1   3  -4 139.161 7.11829   6
   1   3  -4 145.919 7.29486   6
  -1   3   4 145.136 9.08914   1
  -1   3   4 143.168 8.42152   6
  -1   3   4 146.693 13.1206   6
   1   3  -4 135.361 8.46147   2
  -1   3   4 138.027 7.83547   4
   1   3  -4 153.722 7.92770   3
  -1  -3  -4 85.5508 6.62453   4
   1  -3   4 79.2405 7.88098   2
  -1  -3  -4 85.8731 7.63937   6
  -1  -3  -4 89.0265 7.92353   6
   1  -3   4 85.8183 4.51579   4
  -1  -3  -4 77.3552 7.98943   1
  -1  -3  -4 75.1152 7.88288   6
   1  -3   4 86.0498 7.85004   1
  -1   3  -4 83.1661 6.90187   3
  -1   3  -4 84.7474 7.09309   2
   1   3   4 82.8940 6.83197   4
   1   3   4 81.8785 7.54818   1
   1   3   4 90.4633 7.25770   6
  -1   3  -4 78.3873 5.35793   6
  -1   3  -4 86.6316 8.94994   1
  -1   3  -4 83.4358 5.45348   6
  -1   3  -4 93.5706 4.66225   4
   1   3   4 78.2169 6.70988   6
  -3  -3  -4 544.344 17.2328   1
   3  -3   4 505.885 19.6468   1
  -3  -3  -4 538.969 16.3388   6
  -3  -3  -4 530.918 16.1936   6
   3  -3   4 525.140 16.9788   2
  -3  -3  -4 527.983 14.6317   4
   3   3   4 533.000 14.8537   4
  -3   3  -4 545.512 12.1048   6
   3   3   4 542.942 13.7993   6
  -3   3  -4 531.984 11.1028   4
  -3   3  -4 532.560 11.7328   6
   3   3   4 522.633 16.6628   1
   3   3   4 527.324 13.7661   6
  -3   3  -4 528.834 16.8542   2
  -3   3  -4 528.675 18.0506   1
  -5  -3  -4 704.785 17.8675   4
  -5  -3  -4 712.717 19.3850   6
  -5  -3  -4 653.113 18.4715   6
  -5  -3  -4 706.299 19.4353   6
  -5  -3  -4 702.920 22.6123   1
   5  -3   4 673.863 21.0927   1
   5  -3   4 693.885 21.2032   2
   5   3   4 677.919 19.4586   1
  -5   3  -4 674.635 13.7447   4
  -5   3  -4 673.819 19.5091   5
  -5   3  -4 718.706 21.7894   1
   5   3   4 693.080 13.8790   6
   5   3   4 703.669 14.0063   6
   5   3   4 677.934 17.8102   4
   7  -3   4 41.5454 7.09786   1
  -7  -3  -4 41.1160 6.74917   6
  -7  -3  -4 40.8223 5.78320   4
   7  -3   4 16.2165 6.71636   2
  -7  -3  -4 34.5652 6.73559   6
   7   3   4 34.7346 6.13341   1
  -7   3  -4 31.0542 6.72956   1
  -7   3  -4 39.6787 4.08109   4
  -9  -3  -4 182.046 11.7666   6
  -9  -3  -4 165.663 11.5610   6
   9  -3   4 177.198 13.1914   2
  -9  -3  -4 171.618 9.93105   4
  -9  -3  -4 193.303 9.64562   5
  -9  -3  -4 199.129 11.8619   1
  -9   3  -4 215.555 13.3624   1
   9   3   4 189.620 10.5063   1
  -9   3  -4 188.257 7.09060   4
 -11  -3  -4 80.2211 13.0552   6
 -11  -3  -4 99.1257 14.6997   6
 -11  -3  -4 81.2897 7.52583   5
  11  -3   4 79.2235 10.9630   2
 -11  -3  -4 85.1258 8.42464   4
 -11   3  -4 86.6422 5.83320   4
 -11   3  -4 73.7347 8.89494   1
  11   3   4 72.0496 8.25467   1
 -13  -3  -4 233.834 16.0072   3
 -13  -3  -4 236.551 13.5576   6
 -13  -3  -4 205.351 11.3909   4
 -13   3  -4 221.795 15.8241   3
 -13   3  -4 209.297 8.74358   4
 -13   3  -4 217.353 13.4926   1
  13   3   4 227.203 10.9828   1
 -15  -3  -4 98.0916 13.2940   3
 -15  -3  -4 106.474 10.7176   6
 -15   3  -4 99.1495 7.56842   4
 -15   3  -4 110.821 10.9156   1
 -15   3  -4 110.421 12.3351   3
 -22  -4   4 16.8952 10.1829   3
 -22  -4   4 20.4255 6.53795   6
  22  -4  -4 19.0469 9.98354   5
 -22   4   4 16.1914 7.48496   4
 -22   4   4 10.8306 6.87556   3
  22   4  -4 20.4902 4.08765   5
  20  -4  -4 40.1031 9.28413   5
 -20  -4   4 47.2115 8.02555   6
 -20  -4   4 25.0471 8.64437   3
  20   4  -4 65.3358 6.29841   5
 -20   4   4 48.7361 9.53497   4
 -20   4   4 51.0869 10.2923   3
 -18  -4   4 68.4579 10.9527   3
 -18  -4   4 58.5563 8.94899   6
 -18   4   4 69.6009 9.05627   3
 -18   4   4 65.1342 9.98739   4
 -18   4   4 65.0519 6.47700   2
  18   4  -4 63.5248 6.59274   5
 -18   4   4 46.0908 7.03927   1
 -18   4   4 63.3890 4.88339   6
  16  -4  -4 110.802 11.3813   5
 -16  -4   4 115.971 12.0916   3
 -16  -4   4 121.437 10.6004   6
 -16   4   4 100.634 6.50815   2
 -16   4   4 107.300 5.86959   6
 -16   4   4 119.581 10.6413   3
 -16   4   4 79.1161 9.99614   4
  16   4  -4 103.234 5.29948   1
  16   4  -4 106.924 7.92787   5
 -16   4   4 108.698 9.71659   1
  14  -4  -4 27.6442 7.58907   5
  14  -4  -4 23.5748 5.83303   3
 -14  -4   4 29.3055 7.67289   3
 -14  -4   4 32.1115 6.59577   6
 -14   4   4 38.8959 7.55331   4
  14   4  -4 35.5598 4.48520   1
 -14   4   4 35.0065 4.51038   6
  14   4  -4 43.7566 5.62295   6
  14   4  -4 35.4042 5.29416   6
 -14   4   4 44.0022 6.93608   3
 -14   4   4 27.9396 4.86701   2
 -14   4   4 26.1896 6.27511   1
  12  -4  -4 7.34303 4.08156   3
 -12  -4   4 -2.7551 5.55334   3
  12  -4  -4 4.14824 5.47944   5
 -12  -4   4 -3.4221 3.91299   6
 -12   4   4 -0.2973 4.72268   4
 -12   4   4 0.10863 3.27187   6
 -12   4   4 1.37923 4.15956   1
  12   4  -4 0.72111 3.53177   1
  12   4  -4 1.56035 4.11978   6
  12   4  -4 -1.6585 4.74220   6
 -10  -4   4 23.2076 6.04991   4
 -10  -4   4 30.1372 5.77540   6
 -10  -4   4 46.9856 6.66972   6
  10  -4  -4 34.0773 3.20919   2
  10  -4  -4 42.9949 5.52572   3
 -10  -4   4 44.5057 6.73725   3
  10  -4  -4 23.3881 6.09228   5
 -10  -4   4 32.8099 5.03302   1
 -10   4   4 37.4340 4.95448   6
 -10   4   4 43.8067 5.23811   6
  10   4  -4 36.8390 5.34028   1
 -10   4   4 45.5621 7.15142   4
 -10   4   4 42.3054 6.81817   1
 -10   4   4 32.0536 5.39177   3
  10   4  -4 39.1049 6.16113   6
  10   4  -4 42.3016 6.41012   3
  10   4  -4 51.0581 6.38798   6
  -8  -4   4 7.51591 3.99998   1
   8  -4  -4 -1.8313 3.46582   3
  -8  -4   4 -2.5403 5.02754   6
  -8  -4   4 3.49136 5.48397   4
   8  -4  -4 -0.0251 4.49503   5
  -8  -4   4 1.84585 3.76851   6
   8  -4  -4 3.29964 1.93272   2
   8   4  -4 2.90800 3.75288   3
  -8   4   4 -3.0548 3.29041   6
  -8   4   4 -2.6825 4.64601   4
  -8   4   4 -2.1363 3.29931   6
   8   4  -4 2.19253 4.00992   1
  -8   4   4 2.05864 3.80101   3
   8   4  -4 2.21951 3.90932   6
   6  -4  -4 901.823 18.7892   6
   6  -4  -4 903.083 23.0625   5
  -6  -4   4 894.480 21.0335   6
   6  -4  -4 879.999 21.1289   3
  -6  -4   4 903.643 22.9248   1
  -6  -4   4 888.162 21.4157   6
   6  -4  -4 864.078 22.6071   4
  -6  -4   4 882.406 22.2239   3
  -6  -4   4 915.062 22.3417   4
  -6   4   4 905.606 24.8062   1
   6   4  -4 892.520 21.9373   3
  -6   4   4 912.538 21.5146   6
  -6   4   4 943.978 21.6205   6
   6   4  -4 911.971 21.8011   6
  -6   4   4 899.750 21.2185   3
  -6   4   4 914.434 21.4540   6
   6   4  -4 887.102 23.0749   1
   6   4  -4 924.098 22.2038   6
  -6   4   4 933.272 23.5257   4
   4  -4  -4 78.4606 7.87199   5
   4  -4  -4 65.3298 7.39786   4
  -4  -4   4 76.9659 7.30476   3
  -4  -4   4 81.2373 6.21649   6
  -4  -4   4 90.5754 7.42518   4
   4  -4  -4 83.5328 6.90835   3
  -4  -4   4 81.5904 7.63097   1
   4  -4  -4 87.8667 6.89706   6
   4  -4  -4 77.2204 6.52318   6
   4   4  -4 84.2645 7.00386   3
  -4   4   4 77.1436 7.52079   6
  -4   4   4 85.7700 7.87776   6
  -4   4   4 83.6849 8.27434   4
  -4   4   4 82.0069 7.46526   6
  -4   4   4 78.8573 8.73485   1
   4   4  -4 82.8720 7.16121   6
   4   4  -4 72.3858 7.18584   6
  -2  -4   4 251.041 7.03162   6
   2  -4  -4 259.436 10.6660   5
   2  -4  -4 244.494 10.6451   3
  -2  -4   4 245.077 10.8946   2
   2  -4  -4 231.458 12.3760   6
  -2  -4   4 248.486 12.2255   1
   2  -4  -4 268.449 10.9659   4
  -2  -4   4 259.490 6.93381   6
  -2  -4   4 240.380 9.99335   3
  -2  -4   4 256.617 9.50718   4
   2   4  -4 253.415 12.3154   1
   2   4  -4 244.919 9.57333   6
   2   4  -4 236.027 11.5280   6
  -2   4   4 262.936 11.1144   6
  -2   4   4 264.271 12.6420   1
  -2   4   4 251.584 11.0261   4
  -2   4   4 259.291 10.7435   6
   2   4  -4 253.194 9.63359   4
   2   4  -4 265.312 10.0291   3
  -2   4   4 253.154 10.8144   6
   0  -4  -4 184.431 9.87437   6
   0  -4  -4 204.494 10.3978   6
   0  -4   4 194.909 10.6280   2
   0  -4   4 204.029 11.2281   1
   0  -4  -4 194.171 9.47995   4
   0  -4  -4 196.525 9.01060   5
   0  -4   4 186.025 7.55374   4
   0   4  -4 187.729 10.7813   1
   0   4   4 180.798 10.9220   1
   0   4  -4 192.794 10.3040   2
   0   4   4 214.149 10.7149   6
   0   4  -4 188.696 8.13592   6
   0   4  -4 182.429 7.77055   6
   0   4   4 205.557 10.1329   6
   0   4  -4 199.327 7.93457   4
   0   4  -4 190.047 8.70717   3
   0   4   4 197.256 9.98810   4
   2  -4   4 134.493 9.64773   2
  -2  -4  -4 126.442 7.16307   5
  -2  -4  -4 120.499 8.90841   6
   2  -4   4 124.499 8.91389   4
   2  -4   4 121.735 9.70320   1
  -2  -4  -4 126.345 9.30941   6
  -2  -4  -4 131.295 8.25076   4
  -2   4  -4 115.353 9.31716   1
   2   4   4 123.276 9.40312   1
  -2   4  -4 131.710 8.92561   2
  -2   4  -4 134.020 6.37302   4
  -2   4  -4 120.780 8.74634   5
   2   4   4 140.028 8.99091   4
  -2   4  -4 127.948 5.87401   6
  -2   4  -4 131.195 7.84902   3
  -2   4  -4 128.258 6.01946   6
   2   4   4 141.262 8.56069   6
   2   4   4 130.279 8.37020   6
   4  -4   4 122.570 10.0351   2
  -4  -4  -4 108.330 8.21445   4
   4  -4   4 121.714 7.66770   4
   4  -4   4 119.813 10.1415   1
  -4  -4  -4 128.205 6.94819   5
  -4  -4  -4 123.797 9.80407   6
  -4  -4  -4 127.349 8.63536   6
  -4   4  -4 140.862 8.73605   3
  -4   4  -4 148.367 11.6179   5
   4   4   4 136.778 7.75105   6
  -4   4  -4 132.386 6.13266   4
   4   4   4 130.479 9.55792   1
   4   4   4 125.462 8.85216   4
   4   4   4 129.732 7.33695   6
  -4   4  -4 131.274 11.0504   1
  -6  -4  -4 1282.78 30.2625   6
  -6  -4  -4 1240.88 25.0252   5
  -6  -4  -4 1204.48 28.5975   4
   6  -4   4 1379.13 33.2664   2
   6   4   4 1298.79 24.5429   6
  -6   4  -4 1272.79 32.9860   1
  -6   4  -4 1236.77 24.6581   4
   6   4   4 1259.25 24.4388   6
   6   4   4 1233.60 31.4397   1
   6   4   4 1308.81 29.6322   4
   8  -4   4 288.359 15.2981   2
  -8  -4  -4 276.464 13.7496   6
  -8  -4  -4 266.439 12.4459   4
  -8  -4  -4 275.512 8.22365   5
  -8   4  -4 270.937 9.16973   4
  -8   4  -4 285.135 15.1009   1
   8   4   4 292.717 18.5347   1
 -10  -4  -4 11.6072 5.39599   4
 -10  -4  -4 11.1103 6.45296   6
  10  -4   4 29.1651 7.84039   2
 -10   4  -4 12.4808 6.24063   1
 -10   4  -4 14.9804 4.11482   4
  12  -4   4 22.5537 7.36936   2
 -12  -4  -4 20.8951 7.17221   6
  12   4   4 28.1761 6.45315   1
 -12   4  -4 21.1710 4.58877   4
 -12   4  -4 35.7188 7.55335   1
 -12   4  -4 21.5840 6.16990   3
 -14  -4  -4 115.820 11.6737   6
 -14  -4  -4 133.601 14.9669   3
 -14   4  -4 114.365 8.13626   4
 -14   4  -4 117.696 11.7838   1
  14   4   4 117.089 8.76537   1
 -14   4  -4 122.962 12.5323   3
 -21  -5   4 0.37086 6.27208   6
 -21  -5   4 6.46727 8.13771   3
  21  -5  -4 0.44315 7.50609   5
 -21   5   4 11.2440 6.19400   3
 -21   5   4 -1.3150 6.41853   4
  21   5  -4 3.79633 2.94736   5
 -19  -5   4 73.8609 11.2415   3
 -19  -5   4 79.2054 10.4293   6
  19  -5  -4 65.7612 10.6096   5
  19   5  -4 75.5877 6.05230   5
 -19   5   4 59.9237 6.70885   2
 -19   5   4 80.3837 10.8901   4
 -19   5   4 94.8132 10.4871   3
  17  -5  -4 339.890 16.8846   5
 -17  -5   4 347.153 18.0897   3
 -17  -5   4 326.003 16.1506   6
 -17   5   4 333.744 17.3756   4
  17   5  -4 339.481 8.84425   1
 -17   5   4 324.477 11.3847   2
 -17   5   4 327.473 14.9984   3
  17   5  -4 351.033 11.8050   5
 -17   5   4 338.710 10.0804   6
  15  -5  -4 228.486 11.3758   3
 -15  -5   4 217.451 14.2068   3
 -15  -5   4 224.050 13.0255   6
  15  -5  -4 208.588 13.2986   5
  15   5  -4 217.545 9.80912   6
  15   5  -4 225.157 9.89396   6
  15   5  -4 216.374 8.97731   1
 -15   5   4 212.039 8.29631   6
 -15   5   4 211.745 11.7545   3
 -15   5   4 187.565 13.6242   4
 -13  -5   4 158.225 10.5073   6
 -13  -5   4 165.732 11.6079   6
  13  -5  -4 171.820 7.22903   2
  13  -5  -4 180.484 12.7445   5
 -13  -5   4 167.190 11.9963   3
  13  -5  -4 159.014 9.91112   3
 -13   5   4 172.070 8.17458   6
  13   5  -4 178.224 11.0111   6
  13   5  -4 172.932 9.00132   1
 -13   5   4 178.208 12.5960   4
  13   5  -4 179.187 9.91336   6
 -13   5   4 174.594 10.5462   3
  11  -5  -4 157.485 8.88165   3
  11  -5  -4 167.375 11.2236   5
  11  -5  -4 161.709 6.39758   2
 -11  -5   4 152.847 10.1023   6
 -11  -5   4 169.191 11.7688   3
 -11  -5   4 145.616 10.7153   6
 -11   5   4 168.305 9.39008   3
 -11   5   4 167.877 11.1564   4
  11   5  -4 164.005 11.9378   3
  11   5  -4 172.624 10.0203   6
 -11   5   4 165.198 8.30997   6
  11   5  -4 165.695 9.55918   1
  11   5  -4 162.906 9.89498   6
   9  -5  -4 524.503 15.2412   3
  -9  -5   4 583.374 18.2999   3
   9  -5  -4 558.935 12.7732   2
  -9  -5   4 541.170 18.1862   4
   9  -5  -4 524.793 18.0851   5
  -9  -5   4 566.958 17.2345   6
  -9  -5   4 565.293 17.3866   6
  -9   5   4 510.128 18.7353   1
  -9   5   4 549.805 18.8565   4
   9   5  -4 554.467 17.2110   1
   9   5  -4 570.194 17.5446   6
   9   5  -4 542.386 17.5864   3
  -9   5   4 547.814 15.7559   3
  -9   5   4 539.416 15.3132   6
   9   5  -4 563.638 16.9057   6
  -7  -5   4 558.343 19.3653   3
   7  -5  -4 524.802 17.6313   4
   7  -5  -4 542.943 15.1140   3
   7  -5  -4 548.108 17.7039   5
  -7  -5   4 563.758 16.3168   6
   7  -5  -4 528.978 12.9090   2
  -7  -5   4 550.737 17.2196   4
  -7  -5   4 507.049 18.2822   6
  -7   5   4 538.626 18.8207   1
   7   5  -4 528.560 16.1587   3
  -7   5   4 531.061 15.6432   6
  -7   5   4 538.340 15.8669   6
   7   5  -4 549.746 17.4114   6
  -7   5   4 548.016 17.9285   4
   7   5  -4 518.766 16.2950   6
   7   5  -4 555.891 17.9233   1
   5  -5  -4 285.642 12.6473   5
   5  -5  -4 274.780 12.4157   4
   5  -5  -4 266.747 10.3896   3
  -5  -5   4 282.541 10.4215   6
   5  -5  -4 280.822 9.65906   6
  -5  -5   4 269.692 12.3772   2
  -5  -5   4 287.157 10.4128   6
  -5  -5   4 273.235 11.0336   3
  -5  -5   4 277.114 12.0790   4
   5  -5  -4 270.627 9.46002   6
   5   5  -4 266.423 10.5605   3
  -5   5   4 267.890 12.8542   1
  -5   5   4 272.531 12.9920   6
  -5   5   4 267.343 11.5313   6
   5   5  -4 275.602 11.6385   6
   5   5  -4 264.293 12.2261   1
  -5   5   4 275.538 12.4158   4
   5   5  -4 276.283 11.1452   6
   3  -5  -4 1978.63 42.1913   5
   3  -5  -4 1903.16 40.8408   4
  -3  -5   4 1885.58 41.5133   1
  -3  -5   4 1896.62 40.6700   2
   3  -5  -4 1897.86 38.7018   3
  -3  -5   4 1908.25 38.0531   3
   3  -5  -4 2019.53 38.6183   6
  -3  -5   4 1988.94 35.4774   6
  -3  -5   4 1910.14 35.2508   6
   3  -5  -4 1901.85 37.9277   6
  -3  -5   4 1902.59 38.6693   4
  -3   5   4 1959.32 39.7868   6
   3   5  -4 1962.66 38.0450   3
  -3   5   4 1889.35 42.3225   1
  -3   5   4 1954.45 39.7761   6
   3   5  -4 1949.16 42.4115   1
   3   5  -4 1889.93 38.3165   6
  -3   5   4 1966.70 41.0333   4
   3   5  -4 1916.11 38.6970   6
   3   5  -4 1940.78 38.9059   4
  -3   5   4 1950.20 39.7216   6
  -1  -5   4 6.56617 3.94885   4
   1  -5  -4 8.56429 4.72014   6
  -1  -5   4 14.5475 5.09910   1
  -1  -5   4 6.83062 5.34124   2
   1  -5  -4 22.3925 5.22895   5
   1  -5  -4 8.37614 4.48250   6
  -1   5   4 11.7297 4.89502   6
  -1   5   4 8.54151 4.86658   6
   1   5  -4 11.1243 4.82567   5
   1   5  -4 6.34883 3.41295   6
   1   5  -4 5.03700 5.70061   1
   1   5  -4 5.53754 4.16652   4
  -1   5   4 10.9163 5.07804   4
   1   5  -4 4.32787 3.90545   6
   1   5  -4 9.72522 3.72122   3
  -1   5   4 15.9823 5.27806   1
   1  -5   4 813.623 22.6825   2
  -1  -5  -4 829.909 19.8805   5
  -1  -5  -4 792.833 21.4948   6
   1  -5   4 807.300 18.9536   4
  -1  -5  -4 811.807 21.7533   6
  -1   5  -4 771.682 19.0634   3
  -1   5  -4 774.223 18.4143   6
  -1   5  -4 821.081 25.3699   5
   1   5   4 832.538 22.0801   4
   1   5   4 770.469 22.6369   1
  -1   5  -4 790.485 23.9464   1
   1   5   4 850.933 21.5926   6
   1   5   4 818.313 21.2238   6
  -1   5  -4 809.079 19.2364   4
  -1   5  -4 807.314 18.4876   6
   3  -5   4 767.378 22.3803   2
  -3  -5  -4 729.495 17.8435   5
  -3  -5  -4 749.869 20.4881   4
   3  -5   4 750.394 17.6700   4
  -3   5  -4 708.070 18.4088   3
   3   5   4 744.830 20.9314   4
  -3   5  -4 765.108 18.0341   4
  -3   5  -4 751.599 23.3271   1
   3   5   4 694.104 21.7481   1
   3   5   4 741.386 19.9096   6
   3   5   4 746.731 19.7857   6
  -5  -5  -4 1169.08 28.7453   4
   5  -5   4 1188.95 24.6810   4
  -5  -5  -4 1204.09 29.8271   6
  -5  -5  -4 1180.10 24.1201   5
   5  -5   4 1229.25 31.4863   2
   5   5   4 1193.09 29.8844   1
  -5   5  -4 1209.82 32.2462   1
   5   5   4 1195.30 29.0493   4
  -5   5  -4 1229.21 25.2469   4
   5   5   4 1106.07 25.7622   6
  -5   5  -4 1162.74 26.8501   3
   5   5   4 1188.19 26.3800   6
  -7  -5  -4 54.1977 8.50387   6
   7  -5   4 76.0413 9.67872   2
  -7  -5  -4 67.4227 7.91637   4
  -7  -5  -4 62.8344 4.99590   5
  -7   5  -4 52.9418 8.68566   1
   7   5   4 62.9535 6.26208   6
   7   5   4 60.8059 7.65649   1
   7   5   4 65.1763 8.37083   4
  -7   5  -4 57.4802 6.20997   4
   7   5   4 71.4663 6.34324   6
   9  -5   4 21.2959 7.12561   2
  -9  -5  -4 4.58662 6.47332   6
  -9   5  -4 11.0293 3.96567   4
   9   5   4 4.08161 4.85176   1
  -9   5  -4 1.39428 6.09499   1
  11  -5   4 -1.5193 6.54467   2
 -11  -5  -4 10.9776 7.15968   6
 -11   5  -4 5.20790 4.21889   4
  11   5   4 0.88597 4.54829   1
 -11   5  -4 2.43569 9.05751   1
 -13  -5  -4 16.2766 8.30226   3
  13  -5   4 39.1405 9.28365   2
 -13  -5  -4 36.5715 8.70733   6
 -13   5  -4 34.7638 5.44702   4
 -13   5  -4 52.8915 9.04979   1
 -13   5  -4 33.8923 7.04375   3
 -15  -5  -4 23.6917 8.06131   3
 -15  -5  -4 47.1246 8.78346   6
 -15   5  -4 38.7298 7.92387   3
 -15   5  -4 34.4126 8.61512   1
 -20  -6   4 72.5736 11.6399   3
 -20  -6   4 68.4417 10.2651   6
  20  -6  -4 58.8650 10.0983   5
 -20   6   4 50.0990 9.80736   4
  20   6  -4 86.6597 4.92961   5
 -20   6   4 69.7313 9.07538   3
 -18  -6   4 4.03746 6.34469   6
  18  -6  -4 -3.9422 7.12269   5
 -18  -6   4 -1.7347 6.26668   3
 -18   6   4 3.67194 5.17224   3
  18   6  -4 -0.9727 3.42051   5
 -18   6   4 -6.7596 5.69582   4
  16  -6  -4 113.561 12.7827   5
 -16  -6   4 130.090 12.9644   3
 -16  -6   4 93.7054 10.6400   6
  16  -6  -4 106.431 9.05722   3
  16   6  -4 103.485 7.08058   1
 -16   6   4 121.596 6.71846   6
  16   6  -4 112.094 8.44282   6
  16   6  -4 114.951 8.29138   6
 -16   6   4 126.507 11.7086   4
 -16   6   4 129.966 9.64976   3
 -14  -6   4 -3.2269 6.40835   3
  14  -6  -4 7.56393 4.33624   3
  14  -6  -4 -12.484 7.03441   5
  14  -6  -4 6.30373 3.70671   2
 -14  -6   4 7.57065 6.34924   6
  14   6  -4 3.63678 4.18733   1
  14   6  -4 3.52317 7.89128   6
 -14   6   4 0.82631 9.46123   4
  14   6  -4 6.08329 4.99674   6
 -14   6   4 4.00106 4.63227   3
  12  -6  -4 13.2552 8.03147   5
  12  -6  -4 11.1830 3.73142   2
 -12  -6   4 7.59339 6.82854   3
 -12  -6   4 23.9182 7.25348   6
 -12  -6   4 20.4773 6.23530   6
  12  -6  -4 22.6496 4.69853   3
 -12   6   4 14.5967 4.48380   6
  12   6  -4 6.71083 5.36248   6
  12   6  -4 20.4334 6.41910   6
 -12   6   4 12.5088 6.82016   4
 -12   6   4 18.7607 5.20198   3
 -10  -6   4 291.105 13.7914   3
  10  -6  -4 298.402 9.78483   2
 -10  -6   4 294.920 13.9845   6
 -10  -6   4 292.582 13.5451   6
  10  -6  -4 313.603 15.2758   5
  10  -6  -4 307.047 11.0247   3
 -10   6   4 293.297 11.5942   6
 -10   6   4 301.606 11.3087   3
  10   6  -4 293.800 13.5644   6
  10   6  -4 288.296 12.9781   6
 -10   6   4 297.132 15.1999   4
  10   6  -4 291.198 12.7869   1
  10   6  -4 287.645 13.4861   3
  -8  -6   4 219.149 11.1063   6
   8  -6  -4 217.504 9.52132   3
   8  -6  -4 210.893 8.43820   2
  -8  -6   4 226.146 11.4617   6
   8  -6  -4 206.903 12.6883   5
  -8  -6   4 213.452 11.3759   3
   8   6  -4 220.828 12.0800   1
   8   6  -4 235.715 17.1754   3
  -8   6   4 224.490 12.0790   6
   8   6  -4 218.081 11.5681   6
   8   6  -4 255.520 12.4004   6
  -8   6   4 230.063 13.4177   4
  -6  -6   4 66.2772 8.31777   2
  -6  -6   4 46.3264 6.51781   3
   6  -6  -4 58.6345 8.50670   5
  -6  -6   4 64.4309 7.90037   4
   6  -6  -4 49.2271 4.69574   6
  -6  -6   4 68.9734 6.94536   6
  -6  -6   4 49.2101 6.34445   6
   6  -6  -4 57.0039 5.83876   3
   6  -6  -4 54.4956 4.58432   6
  -6   6   4 58.6178 9.59718   5
  -6   6   4 54.0282 7.59206   4
   6   6  -4 72.2699 7.34284   3
   6   6  -4 48.7935 7.41438   1
  -6   6   4 56.8051 7.18312   6
   6   6  -4 42.7052 7.50586   6
   6   6  -4 76.2883 8.75420   6
  -4  -6   4 31.6994 7.67626   6
   4  -6  -4 43.7904 7.18212   5
   4  -6  -4 26.3080 5.07614   3
  -4  -6   4 28.4768 5.85494   4
   4  -6  -4 42.2011 5.64669   6
  -4  -6   4 33.0733 4.81825   6
  -4  -6   4 41.5114 7.10050   2
  -4  -6   4 35.3032 5.44045   3
   4   6  -4 39.2186 5.47365   3
   4   6  -4 27.6351 6.86481   1
   4   6  -4 29.8535 6.70648   5
  -4   6   4 37.9850 6.86724   6
   4   6  -4 32.2393 6.21144   4
  -4   6   4 23.9328 6.11078   6
   4   6  -4 36.8060 5.75157   6
  -4   6   4 32.2684 6.47511   4
   4   6  -4 36.6285 6.41959   6
  -2  -6   4 15.1058 6.14008   2
  -2  -6   4 20.4069 5.19566   4
   2  -6  -4 30.1807 5.84969   6
   2  -6  -4 28.7084 5.94824   6
  -2  -6   4 30.3939 4.81708   3
   2  -6  -4 25.3817 6.00156   5
   2  -6  -4 27.9455 6.36318   4
   2  -6  -4 36.1080 5.71835   3
   2   6  -4 32.4104 6.06971   4
  -2   6   4 25.5284 6.12267   6
   2   6  -4 29.2012 4.59227   3
   2   6  -4 33.5897 5.91318   6
  -2   6   4 35.9832 6.62444   6
  -2   6   4 27.5328 6.02936   4
   2   6  -4 26.4073 6.81492   1
   0  -6  -4 259.250 12.2177   6
   0  -6   4 275.104 13.7311   2
   0  -6   4 271.012 11.0906   4
   0  -6  -4 286.784 13.3197   5
   0  -6  -4 250.583 12.6376   4
   0  -6  -4 272.041 12.8271   6
   0   6  -4 267.285 10.8392   6
   0   6  -4 279.951 14.8799   1
   0   6  -4 279.301 11.7517   4
   0   6  -4 271.640 9.67521   3
   0   6   4 297.353 13.9303   4
   0   6   4 264.282 12.7048   6
   0   6   4 272.917 12.9927   6
   0   6   4 265.887 12.5073   6
  -2  -6  -4 320.436 16.1858   4
  -2  -6  -4 307.748 13.7368   6
  -2  -6  -4 306.373 14.0540   6
   2  -6   4 319.989 11.7052   4
   2  -6   4 319.397 14.8211   2
  -2  -6  -4 319.293 11.6739   5
   2   6   4 309.938 13.7666   6
  -2   6  -4 317.929 11.8625   4
   2   6   4 278.057 20.3856   1
  -2   6  -4 315.013 16.2054   1
  -2   6  -4 320.834 10.8680   3
   2   6   4 310.933 13.7038   6
  -2   6  -4 310.851 10.7224   6
   2   6   4 327.732 14.7761   4
  -4  -6  -4 1.89758 4.06477   5
   4  -6   4 1.69775 3.79935   4
  -4  -6  -4 -1.6464 5.78882   6
   4  -6   4 7.81082 5.89983   2
  -4  -6  -4 -4.9336 5.41170   6
   4   6   4 -0.3155 6.03680   1
   4   6   4 6.62209 5.48964   6
  -4   6  -4 6.54181 3.70934   3
   4   6   4 5.57795 5.46129   6
   4   6   4 14.9366 6.39728   4
  -4   6  -4 -4.0894 5.45010   1
  -4   6  -4 4.31039 3.24758   6
  -4   6  -4 8.48567 4.37896   4
   6  -6   4 17.0861 6.35367   2
   6  -6   4 6.09523 3.64775   4
  -6  -6  -4 12.4407 6.76410   6
  -6  -6  -4 9.61724 3.65869   5
  -6   6  -4 4.82381 4.01497   4
  -6   6  -4 5.13113 6.63317   1
   6   6   4 9.57683 5.81357   4
  -6   6  -4 12.7204 4.63889   3
   6   6   4 4.41609 5.34492   6
   6   6   4 8.87171 4.94759   6
   6   6   4 11.6449 6.67228   1
  -8  -6  -4 146.662 12.9855   6
   8  -6   4 157.713 12.8887   2
   8   6   4 161.546 8.06154   6
   8   6   4 162.270 12.5685   1
  -8   6  -4 146.743 8.75008   4
  -8   6  -4 144.600 10.8897   3
   8   6   4 158.374 9.14897   6
   8   6   4 162.218 11.9980   4
  10  -6   4 194.284 14.4860   2
 -10  -6  -4 170.711 14.0860   6
  10   6   4 170.250 11.2693   1
 -10   6  -4 182.365 10.6636   3
 -10   6  -4 165.510 10.0937   4
 -10   6  -4 197.129 14.9619   1
 -12  -6  -4 4.87230 6.98157   6
 -12  -6  -4 0.20843 6.96786   3
  12  -6   4 -2.8406 6.45521   2
 -12   6  -4 4.03677 4.66785   3
 -12   6  -4 5.58562 6.82465   1
  14  -6   4 9.64076 12.4555   2
 -14  -6  -4 5.34138 8.29776   3
 -14  -6  -4 12.5480 7.57587   6
 -14   6  -4 11.6867 6.77302   1
 -14   6  -4 -2.0534 4.43523   4
 -14   6  -4 14.8060 5.90783   3
 -19  -7   4 -0.6141 5.34534   6
 -19  -7   4 11.0513 8.00589   3
  19  -7  -4 -3.8420 6.80591   5
 -19   7   4 -5.4815 6.31295   4
  19   7  -4 2.24348 2.72207   5
 -19   7   4 15.5237 5.57319   3
 -17  -7   4 29.8048 7.79449   6
 -17  -7   4 21.4922 7.86249   3
  17  -7  -4 40.5357 9.59053   5
  17  -7  -4 29.1197 5.74515   3
 -17   7   4 35.1299 4.86981   6
  17   7  -4 19.4169 5.51074   6
 -17   7   4 19.5593 7.68714   4
  17   7  -4 20.1240 5.38140   6
  17   7  -4 34.6830 4.69815   5
 -17   7   4 18.3775 5.51841   3
  17   7  -4 26.9138 4.38940   1
 -15  -7   4 90.1208 11.8553   3
  15  -7  -4 83.7128 7.87142   3
 -15  -7   4 115.330 12.2792   6
  15  -7  -4 98.5333 11.7612   5
  15  -7  -4 95.9737 7.34112   2
  15   7  -4 99.3532 7.33457   5
  15   7  -4 103.682 9.54826   6
 -15   7   4 86.9998 11.1058   4
 -15   7   4 104.193 8.61260   3
 -15   7   4 113.133 7.50670   6
  13  -7  -4 64.1372 10.9089   5
  13  -7  -4 56.3226 5.89020   2
  13  -7  -4 53.7226 5.92488   3
 -13  -7   4 58.3339 9.38593   6
 -13  -7   4 53.0983 9.20599   3
 -13  -7   4 54.2972 8.22223   6
 -13   7   4 55.9626 6.78517   6
  13   7  -4 53.3793 7.85266   6
  13   7  -4 70.1692 7.25428   5
 -13   7   4 59.7253 6.77772   3
  13   7  -4 68.4427 7.61178   1
  13   7  -4 67.2232 9.27771   6
 -13   7   4 64.1237 9.73827   4
 -11  -7   4 14.6911 6.00446   6
  11  -7  -4 22.7295 4.60945   3
 -11  -7   4 18.0971 6.56512   6
 -11  -7   4 16.0102 6.76049   3
  11  -7  -4 21.4850 4.64841   2
  11  -7  -4 16.1767 12.1555   5
  11   7  -4 14.0130 5.87804   5
  11   7  -4 11.8557 5.73164   6
  11   7  -4 10.3207 6.07665   6
  11   7  -4 9.62894 5.57652   1
 -11   7   4 26.1303 5.70559   6
 -11   7   4 13.8855 9.10247   4
  -9  -7   4 125.121 10.2398   3
   9  -7  -4 119.590 7.38432   3
  -9  -7   4 127.013 9.98069   6
   9  -7  -4 131.936 7.95687   2
   9  -7  -4 140.685 12.0402   5
  -9  -7   4 116.678 10.3682   6
   9   7  -4 115.618 10.8245   6
  -9   7   4 138.111 12.3814   4
   9   7  -4 132.056 9.99839   3
   9   7  -4 126.461 10.5245   6
   9   7  -4 140.608 9.78523   5
   9   7  -4 119.732 11.4768   1
   7  -7  -4 386.044 12.2860   3
  -7  -7   4 385.776 14.5020   3
  -7  -7   4 403.913 14.4180   6
  -7  -7   4 380.522 13.8786   6
  -7  -7   4 384.400 15.9896   2
   7  -7  -4 391.914 16.8043   5
   7  -7  -4 384.007 12.9205   2
  -7   7   4 392.148 17.3803   4
   7   7  -4 371.460 15.7398   3
   7   7  -4 369.024 16.5959   1
  -7   7   4 401.892 15.1391   6
   7   7  -4 374.242 15.1624   6
   7   7  -4 368.410 14.7226   5
   7   7  -4 383.484 15.9162   6
  -5  -7   4 536.435 15.1240   6
   5  -7  -4 539.041 13.5446   6
   5  -7  -4 520.780 18.8338   5
  -5  -7   4 523.386 15.8296   3
  -5  -7   4 527.883 19.4191   2
  -5  -7   4 519.201 18.0407   6
   5  -7  -4 536.449 13.6140   6
   5  -7  -4 505.606 15.0026   3
  -5   7   4 520.823 19.7930   4
  -5   7   4 549.891 18.2077   6
   5   7  -4 537.488 18.2110   6
   5   7  -4 543.517 18.8504   4
   5   7  -4 517.165 15.5962   3
   5   7  -4 539.629 20.3020   1
   3  -7  -4 42.7248 7.25401   5
  -3  -7   4 26.4179 6.16538   4
  -3  -7   4 31.2297 3.64884   6
  -3  -7   4 37.8631 7.37929   2
  -3  -7   4 35.9994 3.93038   6
   3  -7  -4 38.1452 5.74150   3
   3  -7  -4 32.5177 5.84816   6
  -3  -7   4 31.2931 5.21773   3
  -3   7   4 22.4537 7.17959   4
   3   7  -4 32.6293 6.93958   4
  -3   7   4 38.4489 6.84822   6
   3   7  -4 33.0814 6.62541   6
  -3   7   4 32.3861 8.97029   6
   3   7  -4 35.4886 4.85122   3
   3   7  -4 42.8567 7.72953   1
   1  -7  -4 5.94689 5.62310   5
  -1  -7   4 -3.7080 4.61672   2
   1  -7  -4 10.4422 5.52272   6
   1  -7  -4 6.16410 5.16985   6
  -1  -7   4 5.00503 4.79269   4
  -1   7   4 8.53978 7.62975   6
   1   7  -4 10.0339 5.35570   6
   1   7  -4 0.81524 5.41513   1
  -1   7   4 0.15456 5.81657   6
   1   7  -4 7.90714 3.42964   3
  -1   7   4 8.11543 6.26416   4
   1   7  -4 -1.2398 5.10766   4
  -1   7   4 8.36231 7.78591   6
   1  -7   4 54.9210 8.59890   2
  -1  -7  -4 45.8588 7.85274   6
  -1  -7  -4 48.1817 7.09163   5
  -1  -7  -4 55.6486 7.71812   6
   1  -7   4 43.7317 6.38440   4
  -1   7  -4 42.2816 6.35758   6
  -1   7  -4 53.5269 7.37597   4
  -1   7  -4 43.2758 4.58798   3
   1   7   4 44.7025 7.83302   6
   1   7   4 43.0304 7.45420   6
   1   7   4 42.3137 7.96293   6
   1   7   4 40.6257 7.71618   4
  -1   7  -4 45.1774 9.08257   1
  -3  -7  -4 196.649 12.8179   6
  -3  -7  -4 207.765 12.6432   6
  -3  -7  -4 209.872 9.95969   5
   3  -7   4 194.420 13.4704   2
   3   7   4 191.037 12.1719   6
   3   7   4 179.319 13.1597   4
  -3   7  -4 192.359 9.32843   6
  -3   7  -4 181.184 13.6668   1
   3   7   4 212.689 12.1844   6
  -3   7  -4 220.248 11.5702   4
  -3   7  -4 197.540 8.33726   3
  -5  -7  -4 42.6878 10.9607   6
  -5  -7  -4 41.2404 5.22048   5
   5  -7   4 42.1019 8.52490   2
  -5  -7  -4 44.3873 8.78897   6
  -5   7  -4 29.8990 4.45277   3
   5   7   4 49.6276 7.73009   6
   5   7   4 34.6226 6.66774   6
  -5   7  -4 31.2973 9.41610   1
  -5   7  -4 36.2667 6.21388   4
   5   7   4 31.6332 7.60354   4
  -5   7  -4 41.7471 5.02482   6
  -7  -7  -4 15.0281 7.09170   6
   7  -7   4 13.7444 7.42713   2
  -7  -7  -4 8.39327 2.96390   5
  -7   7  -4 7.18597 4.01025   3
  -7   7  -4 12.3124 3.15475   6
  -7   7  -4 10.6894 7.23459   1
   7   7   4 9.37276 6.34063   4
   7   7   4 10.7132 5.24408   6
  -7   7  -4 11.5677 4.73661   4
  -9  -7  -4 108.383 12.8619   6
   9  -7   4 107.182 12.3334   2
  -9  -7  -4 110.579 11.9362   3
  -9   7  -4 113.672 8.89840   3
  -9   7  -4 108.882 9.00193   3
  -9   7  -4 123.361 13.5364   1
   9   7   4 117.267 9.92080   6
   9   7   4 120.745 7.60786   6
  -9   7  -4 103.423 8.95164   4
  11  -7   4 278.599 17.0663   2
 -11  -7  -4 224.089 16.9277   3
 -11  -7  -4 262.762 16.3600   6
 -11   7  -4 236.053 11.9509   3
 -11   7  -4 259.906 17.0593   1
 -11   7  -4 230.816 11.4041   3
 -11   7  -4 202.829 11.1872   4
 -13  -7  -4 88.9212 17.3139   3
 -13  -7  -4 88.7907 11.5223   6
 -13   7  -4 93.3719 9.30458   3
 -13   7  -4 68.0093 7.67096   4
 -13   7  -4 86.5492 12.3630   1
 -18  -8   4 46.1769 8.90750   6
 -18  -8   4 31.4894 9.01679   3
  18  -8  -4 45.3915 15.9664   5
  18   8  -4 33.5271 6.51316   6
 -18   8   4 38.9804 10.2204   4
 -18   8   4 33.2385 5.86531   3
  18   8  -4 34.0558 4.98738   1
  18   8  -4 37.5504 6.22425   6
 -16  -8   4 3.24955 7.57722   3
 -16  -8   4 8.29361 6.89810   6
  16  -8  -4 25.0425 9.40884   5
  16  -8  -4 8.09858 4.55885   2
  16   8  -4 9.58073 5.70427   6
 -16   8   4 6.69706 4.19689   6
  16   8  -4 10.6561 4.11747   5
  16   8  -4 14.5374 5.09286   1
 -16   8   4 6.68318 7.69750   4
  16   8  -4 5.23412 5.18903   6
  14  -8  -4 5.68544 4.41654   2
 -14  -8   4 -2.2470 6.10040   6
 -14  -8   4 -3.7152 6.65596   3
  14  -8  -4 -7.5777 6.62143   5
  14  -8  -4 -1.6395 3.48733   3
  14   8  -4 3.16295 4.96673   1
 -14   8   4 2.19420 4.15284   6
 -14   8   4 8.44115 7.40645   4
 -14   8   4 0.93177 3.79999   3
  14   8  -4 3.24381 5.35101   6
  14   8  -4 6.72839 5.65465   6
 -12  -8   4 51.1058 8.21714   6
 -12  -8   4 49.9710 8.79938   6
 -12  -8   4 56.3533 8.83556   3
  12  -8  -4 38.9126 9.66459   5
  12  -8  -4 55.4733 5.51367   3
  12   8  -4 38.9363 7.63332   6
 -12   8   4 49.0453 7.02224   6
  12   8  -4 61.0137 9.15666   6
  12   8  -4 48.6353 7.82277   1
 -12   8   4 44.9403 8.77655   4
  12   8  -4 55.1553 6.78376   5
  10  -8  -4 204.767 8.13106   3
 -10  -8   4 191.005 12.0418   3
  10  -8  -4 206.398 14.4437   5
 -10  -8   4 177.548 13.3614   6
 -10  -8   4 210.216 12.0225   6
 -10   8   4 220.957 15.0734   4
  10   8  -4 218.433 17.1636   6
  10   8  -4 191.912 10.8927   5
  10   8  -4 210.727 13.2245   6
  10   8  -4 200.157 12.8762   1
   8  -8  -4 195.871 8.33224   3
  -8  -8   4 201.332 11.2729   6
   8  -8  -4 173.282 13.9640   5
  -8  -8   4 167.986 17.4874   6
  -8  -8   4 199.191 11.6403   3
   8  -8  -4 189.756 9.86648   2
   8   8  -4 196.135 13.6512   1
  -8   8   4 184.245 16.3535   4
  -8   8   4 194.001 11.9391   6
   8   8  -4 167.362 10.1851   3
   8   8  -4 180.260 11.8003   6
   8   8  -4 188.461 13.0215   6
  -6  -8   4 35.8373 6.74626   3
  -6  -8   4 28.0965 5.72425   6
  -6  -8   4 46.4755 8.65378   2
  -6  -8   4 34.2009 5.76762   6
   6  -8  -4 35.0274 8.31634   5
   6  -8  -4 37.4081 5.02507   3
  -6   8   4 40.0355 7.72856   6
   6   8  -4 30.5781 7.94132   1
   6   8  -4 36.0563 7.99740   4
   6   8  -4 36.2178 7.95664   6
   6   8  -4 34.0276 5.61289   3
  -6   8   4 38.2587 9.53899   4
   4  -8  -4 248.794 13.4761   5
  -4  -8   4 218.627 14.0906   2
  -4  -8   4 250.910 8.82549   6
   4  -8  -4 244.301 9.84862   6
  -4  -8   4 245.712 10.6658   3
   4  -8  -4 256.452 10.7532   3
   4  -8  -4 240.031 9.98913   6
  -4  -8   4 230.248 8.43656   6
   4   8  -4 247.566 13.7806   6
   4   8  -4 258.607 15.7910   1
  -4   8   4 267.923 22.4859   6
   4   8  -4 253.591 10.3501   3
   4   8  -4 246.696 13.9375   4
  -4   8   4 253.519 15.4470   4
  -2  -8   4 -6.4247 4.49044   2
   2  -8  -4 -1.6050 4.22285   3
   2  -8  -4 -7.1810 5.63627   5
   2  -8  -4 3.14617 4.97031   6
  -2   8   4 2.50678 6.68789   4
   2   8  -4 0.89441 5.93145   4
  -2   8   4 3.07092 6.13491   6
   2   8  -4 -0.2219 6.59477   1
   2   8  -4 -4.6940 5.02559   6
   2   8  -4 -6.9486 2.87733   3
   0  -8  -4 32.7742 8.22263   6
   0  -8  -4 38.9383 9.93465   6
   0  -8  -4 34.8606 7.03647   5
   0   8  -4 28.7388 7.16961   4
   0   8   4 31.8772 7.39337   6
   0   8  -4 33.6576 6.53482   6
   0   8  -4 28.0397 3.98722   3
   0   8   4 30.1620 7.50319   6
   0   8   4 40.5380 7.92859   6
   0   8   4 37.5722 8.75331   4
  -2  -8  -4 -3.0518 4.97232   5
   2  -8   4 -0.2123 6.28960   2
  -2  -8  -4 -0.2538 5.47584   6
  -2  -8  -4 -0.1331 5.97115   6
  -2   8  -4 2.36815 5.09178   4
   2   8   4 5.70636 6.33969   6
   2   8   4 -1.7149 5.78779   6
   2   8   4 1.66088 6.75155   4
   2   8   4 3.59364 5.81880   6
  -2   8  -4 7.45702 6.81763   1
  -2   8  -4 -1.6597 4.25813   6
   4  -8   4 479.293 19.7722   4
   4  -8   4 474.265 20.3453   2
  -4  -8  -4 485.723 20.0218   6
  -4  -8  -4 469.709 14.6518   5
  -4  -8  -4 498.120 20.3496   6
  -4   8  -4 437.188 14.4042   3
   4   8   4 476.321 18.4753   6
  -4   8  -4 474.702 14.7988   6
  -4   8  -4 477.032 21.4918   1
   4   8   4 469.561 17.8274   6
  -4   8  -4 475.507 17.1635   4
  -6  -8  -4 75.9664 11.3226   6
  -6  -8  -4 79.9467 6.42806   5
   6  -8   4 94.0978 9.80898   4
   6  -8   4 72.7088 9.92931   2
  -6   8  -4 86.2689 8.97845   4
  -6   8  -4 80.3015 5.91114   3
   6   8   4 70.4329 10.0671   4
  -6   8  -4 88.6963 6.94472   6
   6   8   4 89.6038 9.67167   6
  -6   8  -4 55.1418 9.84243   1
   6   8   4 72.2850 9.02300   6
  -8  -8  -4 -4.8570 6.05374   3
   8  -8   4 -0.2476 6.26680   2
   8   8   4 -1.2332 6.57462   4
   8   8   4 4.32145 5.28910   6
  -8   8  -4 7.02602 4.92793   4
  -8   8  -4 -3.8907 3.09881   3
  -8   8  -4 3.76461 3.52205   3
  -8   8  -4 -3.7139 7.28055   1
   8   8   4 4.40711 4.98259   6
  -8   8  -4 3.77360 4.49049   6
  10  -8   4 41.2051 9.22896   2
 -10  -8  -4 26.8487 9.17221   3
 -10   8  -4 34.4697 6.52434   4
  10   8   4 43.2480 6.24422   6
  10   8   4 44.2707 9.20545   4
 -10   8  -4 37.2025 9.53667   1
  10   8   4 38.6538 5.23952   6
  17  -9  -4 16.0985 5.11563   2
  17  -9  -4 4.71840 7.67430   5
 -17  -9   4 23.7136 8.41110   6
 -17  -9   4 23.1193 9.01768   3
  17   9  -4 -0.2301 5.16526   6
  17   9  -4 3.19189 4.85755   1
  15  -9  -4 20.6368 5.09846   2
  15  -9  -4 27.5019 9.43658   5
 -15  -9   4 23.3481 7.51486   6
 -15  -9   4 19.3021 8.30941   3
  15   9  -4 28.5433 9.63931   6
  15   9  -4 14.9283 5.60404   1
 -15   9   4 11.9374 7.91469   4
  15   9  -4 22.1867 7.12897   6
 -13  -9   4 1.69299 6.62632   6
  13  -9  -4 9.14990 4.53213   2
 -13  -9   4 11.7073 7.61336   3
  13  -9  -4 2.61946 7.18840   5
  13   9  -4 10.1258 6.97968   6
 -13   9   4 8.42721 8.01323   4
  13   9  -4 12.2851 5.91573   1
 -13   9   4 15.6811 5.39571   6
  13   9  -4 15.6628 6.40517   6
  13   9  -4 12.3318 5.09236   5
 -11  -9   4 18.7931 6.18605   6
  11  -9  -4 11.3371 8.59197   5
  11  -9  -4 5.98621 4.65176   2
 -11  -9   4 3.93491 5.94567   3
 -11  -9   4 11.3154 6.86003   6
  11   9  -4 3.38151 6.48923   6
  11   9  -4 -2.8991 5.24984   1
 -11   9   4 19.8039 7.64588   4
  -9  -9   4 134.351 10.6454   6
  -9  -9   4 155.513 11.3366   3
  -9  -9   4 155.362 10.5723   6
   9  -9  -4 130.449 13.4361   5
   9  -9  -4 141.854 7.43283   3
   9  -9  -4 140.047 9.50901   2
  -9   9   4 134.120 13.4044   4
   9   9  -4 128.872 12.5765   1
   9   9  -4 163.355 12.6647   6
  -9   9   4 142.467 11.0296   6
  -7  -9   4 202.176 10.2284   6
  -7  -9   4 214.607 14.5272   2
   7  -9  -4 181.297 11.0868   2
   7  -9  -4 199.456 8.00381   3
  -7  -9   4 199.194 10.9504   6
   7  -9  -4 187.240 14.3216   5
  -7  -9   4 195.823 11.2663   3
  -7   9   4 194.663 13.0468   6
   7   9  -4 186.173 14.2560   4
  -7   9   4 216.283 15.7434   4
   7   9  -4 195.545 14.6054   1
   7   9  -4 203.054 10.4646   3
   7   9  -4 184.726 13.7770   6
  -5  -9   4 489.715 20.5356   2
  -5  -9   4 447.530 13.4296   6
  -5  -9   4 473.670 15.0366   3
  -5  -9   4 464.644 13.3724   6
   5  -9  -4 454.542 19.1200   5
   5  -9  -4 459.787 13.7601   3
  -5   9   4 457.397 20.7037   4
   5   9  -4 518.697 31.7741   1
   5   9  -4 482.270 19.5334   6
   5   9  -4 452.832 14.4039   3
   5   9  -4 453.459 25.1186   4
   3  -9  -4 539.495 19.9003   5
  -3  -9   4 549.138 21.3764   2
   3  -9  -4 547.028 16.2961   3
   3  -9  -4 563.248 15.8456   6
  -3  -9   4 575.626 15.3906   3
   3  -9  -4 563.059 16.1885   6
   3   9  -4 602.032 21.8584   4
  -3   9   4 546.307 20.5704   6
  -3   9   4 553.920 22.6415   4
   3   9  -4 544.078 14.8344   3
   3   9  -4 573.657 23.5019   1
   3   9  -4 571.261 20.2222   6
   1  -9  -4 18.1183 6.80340   5
  -1  -9   4 7.33609 6.69400   2
   1  -9  -4 13.1344 4.84117   3
   1  -9  -4 26.1997 6.40395   6
   1   9  -4 31.5609 6.90773   6
   1   9  -4 14.5419 6.66033   4
  -1   9   4 17.2458 7.19504   6
   1   9  -4 13.4536 7.48780   1
  -1   9   4 13.5024 7.92827   4
   1   9  -4 24.6979 4.79760   3
   1  -9   4 18.5123 7.56759   2
  -1  -9  -4 6.26481 6.40897   6
  -1  -9  -4 10.3159 6.08315   5
   1   9   4 16.4660 7.92292   6
  -1   9  -4 12.1534 7.97824   1
  -1   9  -4 15.1808 2.51131   3
   1   9   4 11.2151 7.95715   4
  -1   9  -4 23.3985 6.19533   6
  -1   9  -4 12.5189 6.22832   4
   1   9   4 6.26922 6.32645   6
   1   9   4 13.8673 6.73866   6
  -3  -9  -4 53.4273 8.61228   6
  -3  -9  -4 51.4243 7.15441   5
   3  -9   4 45.1473 8.71617   2
  -3  -9  -4 45.0427 8.40577   6
  -3   9  -4 44.4688 6.60812   6
  -3   9  -4 37.3059 10.0712   1
   3   9   4 45.3386 8.84318   6
   3   9   4 46.4714 9.57138   4
   3   9   4 30.9327 7.22109   6
  -3   9  -4 53.6640 8.20008   4
   3   9   4 38.1659 7.50692   6
   5  -9   4 164.006 13.8539   2
  -5  -9  -4 147.845 12.1188   6
  -5  -9  -4 165.679 12.5716   5
  -5  -9  -4 137.334 12.9665   6
   5   9   4 144.548 13.8646   4
  -5   9  -4 147.836 11.3384   4
   5   9   4 119.134 11.1531   6
  -5   9  -4 142.034 14.4270   1
  -5   9  -4 135.360 8.83288   6
   5   9   4 148.906 12.6433   6
  -7  -9  -4 40.1226 8.91902   3
   7  -9   4 33.5721 9.13447   2
  -7  -9  -4 42.8909 9.11322   6
  -7   9  -4 43.1071 6.86077   4
  -7   9  -4 49.2519 6.18495   6
   7   9   4 24.5085 7.18711   6
   7   9   4 32.1269 7.22162   6
  -7   9  -4 33.4926 9.35220   1
   7   9   4 35.7922 8.95931   4
  -9  -9  -4 4.98075 6.92734   3
   9  -9   4 -3.3489 6.64780   2
  -9  -9  -4 -5.5731 7.17522   6
   9   9   4 -13.157 4.63627   6
  -9   9  -4 -7.6909 7.42480   1
  -9   9  -4 -3.2975 4.58235   4
   9   9   4 -4.9038 6.92110   4
  14 -10  -4 43.2832 6.52394   2
 -14 -10   4 35.8248 8.26708   3
  14 -10  -4 43.7987 11.0517   5
 -14 -10   4 56.8012 10.0625   6
  14  10  -4 39.1533 7.54985   1
 -12 -10   4 158.915 13.0634   6
 -12 -10   4 169.286 18.8229   6
  12 -10  -4 158.771 9.99232   2
  12 -10  -4 128.799 13.6954   5
 -12  10   4 143.099 16.1098   6
  12  10  -4 133.384 14.1254   6
  12  10  -4 148.120 13.2132   6
 -12  10   4 132.369 14.7413   4
  10 -10  -4 80.6228 8.96656   2
 -10 -10   4 112.692 9.27702   6
  10 -10  -4 79.7732 11.6431   5
 -10 -10   4 77.6126 9.10691   3
 -10 -10   4 96.0409 10.6010   6
  10  10  -4 61.1430 9.65594   1
 -10  10   4 80.8010 9.71259   6
 -10  10   4 83.5153 12.1642   4
  10  10  -4 61.2400 9.89817   6
  -8 -10   4 15.2123 5.87664   6
   8 -10  -4 8.02180 2.65497   3
   8 -10  -4 3.23423 4.76106   2
   8 -10  -4 13.1295 7.16610   5
  -8 -10   4 2.90978 5.44757   3
  -8 -10   4 11.8382 7.46628   2
  -8 -10   4 7.48036 4.59314   6
  -8  10   4 -1.0787 7.69920   4
  -8  10   4 4.97608 6.03356   6
   8  10  -4 7.13949 6.63604   1
   8  10  -4 4.06022 6.71722   4
   6 -10  -4 23.1861 7.55036   5
   6 -10  -4 15.1925 6.37339   2
  -6 -10   4 19.6475 4.71227   6
  -6 -10   4 22.9124 5.33408   3
   6 -10  -4 20.0127 3.66282   3
  -6 -10   4 22.5095 5.12446   6
  -6 -10   4 16.9732 7.21113   2
   6  10  -4 16.1732 7.46384   6
   6  10  -4 15.2516 7.03008   4
  -6  10   4 23.9400 9.44397   4
   6  10  -4 26.3403 8.70760   1
  -6  10   4 33.8893 8.55394   6
   4 -10  -4 146.347 8.20705   3
   4 -10  -4 134.094 12.6133   5
  -4 -10   4 158.714 8.44692   3
  -4 -10   4 147.428 13.9624   2
  -4  10   4 149.489 13.1005   6
  -4  10   4 153.930 14.5543   4
   4  10  -4 159.703 14.0352   6
   4  10  -4 139.459 14.4491   1
   4  10  -4 140.016 13.7966   4
  -2 -10   4 160.332 13.7753   2
   2 -10  -4 131.880 14.1814   3
   2 -10  -4 162.533 9.88769   6
   2 -10  -4 173.709 9.33772   6
   2 -10  -4 174.630 12.6038   5
  -2  10   4 173.369 15.2193   4
  -2  10   4 176.033 13.6264   6
   2  10  -4 182.794 15.5985   1
   2  10  -4 156.626 13.1909   6
   2  10  -4 172.476 14.0678   4
   0 -10   4 5.68207 7.47704   2
   0 -10  -4 16.6725 5.62927   3
   0 -10  -4 6.93469 5.81579   6
   0 -10  -4 13.2325 6.41114   5
   0  10  -4 11.6288 6.20564   6
   0  10   4 14.3440 10.1731   6
   0  10   4 9.02114 7.57108   4
   0  10  -4 15.8424 7.46620   4
   0  10  -4 9.86536 7.56300   1
  -2 -10  -4 5.18338 5.15595   3
  -2 -10  -4 -0.0473 6.15811   6
   2 -10   4 0.01939 6.58532   2
  -2 -10  -4 2.16099 5.11411   5
  -2 -10  -4 -12.790 5.81034   6
   2  10   4 0.99548 6.81493   6
   2  10   4 -9.6749 6.62442   6
   2  10   4 -16.258 6.97095   6
   2  10   4 -12.359 7.03090   4
  -2  10  -4 4.39970 7.98940   1
  -2  10  -4 -0.2885 4.99280   6
  -4 -10  -4 2.49172 4.93724   5
  -4 -10  -4 6.79285 6.38087   6
  -4 -10  -4 8.12262 5.88627   3
  -4 -10  -4 23.3717 7.81640   6
   4 -10   4 -1.6864 7.37883   2
   4  10   4 6.96647 6.68379   6
   4  10   4 3.76796 5.35795   6
  -4  10  -4 9.69519 4.96694   6
   4  10   4 -4.9758 6.35193   6
  -4  10  -4 5.80600 7.57097   1
   4  10   4 -6.9535 7.26684   4
   6 -10   4 13.4030 8.12459   2
  -6 -10  -4 9.45691 7.10544   3
  -6 -10  -4 6.63143 7.37498   6
   6  10   4 14.7674 8.67970   6
   6  10   4 8.04058 7.78817   4
  -6  10  -4 13.5203 9.97789   1
  11 -11  -4 10.7010 9.16694   5
  11 -11  -4 4.62798 5.43024   2
 -11 -11   4 12.2549 6.58755   6
 -11 -11   4 16.8980 6.26645   3
  11  11  -4 12.7441 7.20986   6
  11  11  -4 -0.5876 6.49840   1
 -11  11   4 1.85647 8.38863   4
   9 -11  -4 3.93096 5.15088   2
  -9 -11   4 -1.5426 6.10584   6
  -9 -11   4 -1.3279 4.96286   3
  -9 -11   4 9.63772 10.7060   2
   9 -11  -4 -5.7082 7.02220   5
   9  11  -4 -1.0285 6.09066   6
  -9  11   4 1.95116 6.36314   6
   9  11  -4 3.41421 6.91562   1
  -7 -11   4 19.5797 5.48212   3
  -7 -11   4 10.9118 7.94318   2
  -7 -11   4 12.0471 4.91670   6
   7 -11  -4 25.1421 6.88544   2
  -7 -11   4 13.2400 4.99482   6
   7 -11  -4 9.84985 7.77724   5
  -7  11   4 0.73202 7.11449   4
   7  11  -4 13.2187 7.55097   6
  -7  11   4 22.0040 8.09437   6
   7  11  -4 14.9514 7.61431   1
   7  11  -4 11.2178 7.55860   4
   5 -11  -4 15.8433 3.42710   3
  -5 -11   4 23.3256 4.85577   3
  -5 -11   4 11.4983 7.16035   2
   5 -11  -4 20.2476 8.22764   5
   5 -11  -4 19.7020 4.38203   3
   5  11  -4 25.1355 8.36958   1
  -5  11   4 9.63032 8.37814   4
  -5  11   4 31.1245 8.14137   6
   5  11  -4 37.4176 8.64792   6
   5  11  -4 33.9871 9.12978   4
   3 -11  -4 9.04998 6.99627   5
   3 -11  -4 -1.3865 3.67137   3
  -3 -11   4 -7.3440 5.96760   2
  -3  11   4 -15.428 7.41005   4
   3  11  -4 -0.6730 6.68074   6
  -3  11   4 4.42542 6.27290   6
   3  11  -4 -2.6020 7.44693   1
   3  11  -4 -1.0950 6.61159   4
   1 -11  -4 7.53638 4.31027   6
   1 -11  -4 -1.8457 5.87869   5
   1 -11  -4 -6.5616 5.18519   3
   1 -11  -4 4.90507 5.20397   6
   1 -11  -4 15.1435 5.16243   3
  -1 -11   4 19.5399 8.12368   2
   1  11  -4 21.6641 8.97098   1
   1  11  -4 18.2133 7.46122   4
  -1  11   4 7.76543 7.24899   6
  -1  11   4 5.64742 8.51958   4
  -1 -11  -4 30.6505 7.93051   6
  -1 -11  -4 25.5201 6.21703   3
   1 -11   4 28.3426 8.57297   2
  -1 -11  -4 27.4034 6.60493   5
   1  11   4 48.2641 9.47317   6
  -1  11  -4 35.3383 10.6557   1
  -1  11  -4 50.7383 8.36522   6
  -1  11  -4 41.9345 8.57231   4
   1  11   4 35.9409 10.4245   4
  -3 -11  -4 51.2877 7.65941   3
  -3 -11  -4 79.6516 8.49616   5
  -3 -11  -4 65.9775 11.5216   6
   3  11   4 52.2644 11.2406   4
  -3  11  -4 82.2270 12.7885   1
   3  11   4 49.5807 9.85195   6
  -3  11  -4 60.2787 9.57413   4
   4  12  -4 36.4674 15.6334   1
 -24   0   5 -4.2913 7.75616   3
  24   0  -5 5.42209 5.14696   5
 -22   0   5 7.16466 4.45502   6
  22   0  -5 0.69689 5.64140   5
 -22   0   5 -9.3183 7.02093   3
  20   0  -5 0.25784 5.32393   5
 -20   0   5 6.20556 4.06265   6
 -20   0   5 0.32507 3.66119   2
 -20   0   5 -4.9759 6.79633   3
 -18   0   5 2.02929 4.01197   6
 -18   0   5 -0.8347 3.01014   1
  18   0  -5 2.48036 5.49376   5
 -18   0   5 -10.314 6.19555   3
 -18   0   5 -5.4264 3.61980   2
 -16   0   5 5.97394 5.81483   3
 -16   0   5 5.15027 3.56124   1
 -16   0   5 1.31592 4.32829   6
  16   0  -5 -5.5998 5.60287   5
 -14   0   5 5.62144 5.98958   3
 -14   0   5 -3.1571 3.16531   1
  14   0  -5 -2.9452 5.14924   5
  12   0  -5 -5.1816 4.02931   3
 -12   0   5 -0.9454 3.47129   6
 -12   0   5 -6.1623 3.20704   1
 -12   0   5 -3.9227 4.62672   3
  12   0  -5 -1.7606 2.43864   6
  12   0  -5 3.09015 2.47596   6
  12   0  -5 3.60354 4.19690   1
 -12   0   5 3.05980 4.03416   6
  10   0  -5 4.27575 4.49371   1
 -10   0   5 3.85171 3.96805   6
 -10   0   5 -4.6253 3.34205   6
  10   0  -5 2.66992 3.57361   6
  10   0  -5 -0.9146 2.53164   6
 -10   0   5 -3.8052 2.01566   2
 -10   0   5 4.14057 3.92145   1
 -10   0   5 -2.1253 4.89645   3
   8   0  -5 3.89216 4.85395   6
   8   0  -5 2.25469 4.34598   1
  -8   0   5 -2.7530 2.25957   2
  -8   0   5 -1.5275 3.68315   1
  -8   0   5 1.97152 3.89271   6
  -8   0   5 -3.4846 3.58498   6
   8   0  -5 4.22969 4.08511   3
   8   0  -5 1.14195 3.48235   6
   6   0  -5 -1.1620 4.18518   1
  -6   0   5 1.39722 4.23367   3
  -6   0   5 0.63807 3.68834   1
   6   0  -5 -2.8330 3.95929   6
  -6   0   5 3.81750 3.79711   6
  -6   0   5 -2.3785 3.51479   6
   6   0  -5 1.57163 2.57130   2
  -6   0   5 -4.1635 2.39334   2
   6   0  -5 -0.4524 3.89065   3
   4   0  -5 -4.3862 4.17856   1
  -4   0   5 0.87572 3.71323   6
   4   0  -5 1.54523 3.80040   6
   4   0  -5 7.72743 4.90270   3
   4   0  -5 2.73552 3.03282   2
  -4   0   5 -2.9475 3.96015   3
   4   0  -5 2.14920 3.95056   6
  -4   0   5 2.45496 3.02334   2
  -4   0   5 -4.3334 3.64817   1
  -4   0   5 4.66903 4.00893   6
   2   0  -5 -3.1553 3.97422   6
   2   0  -5 0.57401 3.36347   2
  -2   0   5 1.84454 3.69401   2
   2   0  -5 4.71717 4.68272   1
   2   0  -5 0.01745 3.83007   6
  -2   0   5 1.99338 4.53264   1
  -2   0   5 2.55303 3.81001   6
   2   0  -5 2.01272 4.22051   3
  -2   0   5 0.64478 2.60308   4
   0   0  -5 1.27124 5.93551   1
   0   0   5 2.73977 4.24666   2
   0   0   5 0.96030 2.63921   6
   0   0  -5 2.03809 3.89548   6
   0   0  -5 -0.9690 4.08269   2
   0   0  -5 -2.2221 4.45827   3
   0   0  -5 -0.1520 3.62811   6
   0   0   5 -0.0734 4.05828   1
   2   0   5 -3.8916 4.45047   1
  -2   0  -5 1.42871 3.78161   6
  -2   0  -5 -0.7189 3.18942   6
  -2   0  -5 -0.0878 4.92581   1
   2   0   5 -2.7427 3.82555   2
  -4   0  -5 -0.4104 3.50438   6
  -4   0  -5 1.10632 4.87011   1
  -4   0  -5 -3.3759 4.12918   2
   4   0   5 1.63811 4.50686   1
  -6   0  -5 0.51553 3.66163   6
  -6   0  -5 1.51571 5.43261   1
   6   0   5 2.00193 4.15527   1
   8   0   5 0.06010 4.77683   1
  -8   0  -5 5.97621 4.80967   5
  -8   0  -5 2.86298 3.68879   6
  -8   0  -5 1.44111 5.69384   1
 -10   0  -5 -6.8783 4.18805   5
 -10   0  -5 7.87412 5.63849   1
 -10   0  -5 1.54785 2.64256   4
 -12   0  -5 2.08058 4.16774   6
 -12   0  -5 -8.0901 4.33866   5
 -12   0  -5 -0.7980 3.74174   4
 -12   0  -5 -2.6397 5.29975   1
 -14   0  -5 -4.7692 5.32112   1
 -14   0  -5 -1.0937 3.11850   4
 -23  -1   5 5.03726 8.33451   3
 -23  -1   5 3.21232 5.03860   6
  23  -1  -5 9.09069 7.18063   5
 -23   1   5 0.06314 7.41106   3
  23   1  -5 23.6556 5.95273   5
  21  -1  -5 5.57757 6.34001   5
 -21  -1   5 -5.9287 4.09955   6
 -21   1   5 -4.1251 5.81065   3
  21   1  -5 -7.4856 5.07594   5
 -21   1   5 5.64904 4.12748   2
 -21   1   5 0.13244 3.01774   1
 -21   1   5 -3.9533 3.58854   6
  19  -1  -5 10.7270 6.57150   5
 -19  -1   5 12.4528 7.66762   3
 -19  -1   5 16.9838 3.05554   1
 -19   1   5 15.2239 4.21688   2
  19   1  -5 12.7092 5.77005   5
 -19   1   5 16.3162 4.30959   6
 -19   1   5 11.2940 7.39360   3
 -19   1   5 11.9992 3.97484   1
  17  -1  -5 33.6318 7.26134   5
 -17  -1   5 37.1494 4.48709   1
 -17  -1   5 39.8751 6.77503   6
 -17  -1   5 28.0567 7.87035   3
 -17   1   5 31.1902 5.35458   1
  17   1  -5 46.6275 7.66873   5
 -17   1   5 37.3724 7.89120   3
 -17   1   5 45.0512 4.79986   2
 -17   1   5 47.4135 5.87663   6
 -15  -1   5 76.1632 9.68465   3
  15  -1  -5 84.4784 9.54515   5
 -15  -1   5 65.1128 6.14316   1
 -15  -1   5 84.5828 8.10201   6
 -15   1   5 66.7139 7.22126   1
  15   1  -5 81.6690 8.97879   5
 -15   1   5 63.3204 8.96968   3
 -15   1   5 75.3485 7.28030   6
 -13  -1   5 19.4486 5.26993   6
  13  -1  -5 16.3630 5.79289   5
  13  -1  -5 10.1007 5.26499   3
 -13  -1   5 27.5527 6.88078   3
 -13  -1   5 15.2667 4.45381   6
 -13  -1   5 10.7386 3.96083   1
 -13   1   5 12.0567 2.38037   2
  13   1  -5 18.9512 3.33341   6
 -13   1   5 15.1523 4.54769   6
  13   1  -5 11.8916 3.14394   6
 -13   1   5 18.7265 4.81866   1
  13   1  -5 12.7785 3.12904   6
  13   1  -5 15.0212 4.34643   1
 -13   1   5 13.3772 5.76752   3
 -11  -1   5 15.3931 4.85335   6
  11  -1  -5 20.4599 5.15083   3
 -11  -1   5 11.0121 5.21457   3
 -11  -1   5 15.7445 4.24564   1
 -11  -1   5 17.3778 5.62521   6
  11  -1  -5 10.6512 4.81307   1
  11  -1  -5 17.5056 2.79926   6
  11  -1  -5 15.8251 4.45658   6
  11  -1  -5 2.72818 5.07599   5
 -11   1   5 18.5292 4.48954   6
 -11   1   5 21.6212 4.76242   6
  11   1  -5 15.2866 5.12646   3
  11   1  -5 13.3272 4.66662   1
 -11   1   5 11.1022 4.47845   1
  11   1  -5 19.5467 3.86784   6
 -11   1   5 14.4060 5.17890   3
  11   1  -5 19.3299 4.43153   6
   9  -1  -5 630.455 18.4228   1
   9  -1  -5 670.375 15.7536   6
   9  -1  -5 680.127 15.7746   6
  -9  -1   5 621.009 14.8775   2
  -9  -1   5 637.485 17.2197   6
  -9  -1   5 612.149 17.0323   6
  -9  -1   5 664.722 19.4414   3
  -9  -1   5 635.344 17.8028   1
   9  -1  -5 624.437 18.2863   3
   9   1  -5 656.296 16.5162   6
   9   1  -5 665.734 16.8697   6
   9   1  -5 631.772 18.9124   3
  -9   1   5 664.680 18.6966   1
   9   1  -5 628.531 18.1206   1
  -9   1   5 646.873 19.2882   3
  -9   1   5 635.470 17.0581   6
  -9   1   5 643.149 17.0096   6
  -7  -1   5 803.358 19.6339   6
  -7  -1   5 780.235 19.7496   6
   7  -1  -5 795.534 21.0169   3
   7  -1  -5 815.758 18.8533   6
  -7  -1   5 846.984 24.2796   3
  -7  -1   5 806.407 20.8464   1
  -7  -1   5 775.018 17.6599   2
   7  -1  -5 800.964 21.5201   1
   7  -1  -5 803.333 19.1613   6
   7   1  -5 785.517 20.8557   3
  -7   1   5 801.793 19.6687   6
  -7   1   5 791.208 19.6205   6
  -7   1   5 789.455 21.3767   1
   7   1  -5 841.798 26.6273   6
  -7   1   5 821.517 15.3730   2
   7   1  -5 819.029 19.6432   6
  -7   1   5 807.690 19.9810   4
  -7   1   5 850.377 21.8687   3
   7   1  -5 828.226 21.4814   1
   5  -1  -5 196.646 6.87796   2
  -5  -1   5 210.886 10.8767   3
  -5  -1   5 190.738 8.05004   2
   5  -1  -5 190.349 9.09653   6
   5  -1  -5 206.331 10.4439   3
  -5  -1   5 195.405 8.90337   6
   5  -1  -5 186.584 10.5224   1
  -5  -1   5 188.045 9.77968   1
  -5  -1   5 198.154 8.97288   6
   5  -1  -5 201.783 9.46538   6
  -5   1   5 184.177 9.78931   3
  -5   1   5 188.151 6.67856   2
  -5   1   5 187.055 8.31053   4
   5   1  -5 189.753 9.09619   6
   5   1  -5 192.469 9.28516   6
  -5   1   5 189.187 10.6824   1
   5   1  -5 198.571 7.86934   2
  -5   1   5 192.783 9.15975   6
   5   1  -5 185.833 10.0277   1
   5   1  -5 193.997 9.83086   3
  -5   1   5 185.043 9.11869   6
  -3  -1   5 1850.00 37.7743   6
   3  -1  -5 1928.94 36.6674   2
  -3  -1   5 2001.31 41.1851   1
   3  -1  -5 1975.20 40.4820   3
  -3  -1   5 1893.14 39.7888   3
   3  -1  -5 2019.03 38.6236   6
  -3  -1   5 1903.88 37.7857   2
  -3  -1   5 2041.45 37.1939   6
   3  -1  -5 1947.98 40.8919   1
   3  -1  -5 1923.35 38.3789   6
   3   1  -5 1999.96 38.2274   6
   3   1  -5 1927.58 37.7659   2
   3   1  -5 1913.69 37.9181   6
  -3   1   5 1944.90 36.5493   4
   3   1  -5 1944.29 39.9409   3
  -3   1   5 1960.95 37.7096   6
  -3   1   5 1930.79 40.6401   1
   3   1  -5 2031.49 41.3733   1
  -3   1   5 1940.26 37.8600   6
  -1  -1   5 4435.41 83.1057   1
   1  -1  -5 4462.38 80.1377   6
  -1  -1   5 4651.52 77.2313   6
   1  -1  -5 4600.49 80.3506   6
   1  -1  -5 4562.82 80.1700   2
  -1  -1   5 4580.25 76.3645   6
  -1  -1   5 4607.40 76.2728   4
  -1  -1   5 4573.14 81.1149   2
   1  -1  -5 4442.20 82.4758   3
   1   1  -5 4524.51 79.3492   6
   1   1  -5 4727.14 87.9822   1
   1   1  -5 4583.18 80.9359   2
   1   1  -5 4570.17 79.4536   6
  -1   1   5 4480.96 79.4259   6
  -1   1   5 4520.82 77.1156   4
   1   1  -5 4567.90 82.4822   3
  -1   1   5 4457.85 83.0009   1
   1  -1   5 2123.00 48.4483   1
   1  -1   5 2157.32 43.4613   2
  -1  -1  -5 2163.02 44.8960   1
  -1  -1  -5 2138.26 41.6125   6
  -1  -1  -5 2159.80 37.6757   4
  -1  -1  -5 2101.06 42.6279   2
  -1   1  -5 2116.55 40.1248   6
  -1   1  -5 2158.06 43.2988   2
   1   1   5 2097.80 37.5657   4
   1   1   5 2161.18 38.1725   6
   1   1   5 2176.67 38.2201   6
  -1   1  -5 2144.47 44.2478   3
  -1   1  -5 2148.93 40.4805   6
  -1   1  -5 2100.03 44.6392   1
   1   1   5 2099.83 44.2964   1
  -3  -1  -5 296.818 7.87231   4
  -3  -1  -5 293.323 12.6924   2
  -3  -1  -5 308.684 14.0528   1
   3  -1   5 291.728 13.1372   1
  -3  -1  -5 277.243 10.8067   6
  -3  -1  -5 302.142 13.2957   6
   3  -1   5 307.586 12.9692   2
  -3   1  -5 319.863 14.0256   1
  -3   1  -5 302.247 10.1877   6
  -3   1  -5 290.726 12.7387   2
  -3   1  -5 290.683 9.80959   6
   5  -1   5 105.158 9.33632   1
  -5  -1  -5 95.2691 4.91891   4
  -5  -1  -5 98.8791 7.93414   6
  -5  -1  -5 95.5772 10.3446   1
   5  -1   5 104.556 9.21960   2
  -5   1  -5 96.4007 6.40503   6
   5   1   5 81.9640 8.73702   1
  -5   1  -5 103.729 10.0585   1
  -7  -1  -5 59.6191 6.82136   6
   7  -1   5 31.9763 6.68873   1
  -7  -1  -5 40.0426 4.11015   4
  -7  -1  -5 48.7419 7.89611   1
  -7   1  -5 64.9443 7.88702   5
   7   1   5 38.1378 6.83658   1
  -7   1  -5 38.1696 4.67722   6
  -7   1  -5 37.4627 7.38721   1
  -9  -1  -5 254.491 10.8868   5
  -9  -1  -5 250.394 8.85730   4
  -9  -1  -5 277.338 13.8581   1
  -9  -1  -5 258.989 11.4326   6
  -9   1  -5 279.589 14.4795   1
  -9   1  -5 280.627 14.7165   5
   9   1   5 260.664 13.0219   1
  -9   1  -5 258.524 9.05286   6
 -11  -1  -5 249.914 11.6397   6
 -11  -1  -5 273.661 14.8447   1
 -11  -1  -5 253.286 9.37793   4
 -11  -1  -5 272.189 14.5586   5
 -11   1  -5 283.975 14.8042   1
  11   1   5 260.175 12.9803   1
 -11   1  -5 260.053 9.23809   6
 -13  -1  -5 128.670 11.5308   1
 -13  -1  -5 124.881 9.42387   6
 -13  -1  -5 131.409 7.72332   4
 -13   1  -5 130.071 11.7882   1
 -13   1  -5 141.580 7.38046   6
 -15  -1  -5 7.25369 5.88916   1
 -15   1  -5 -3.4991 5.84649   1
 -15   1  -5 10.6308 8.08181   3
  24  -2  -5 35.6420 8.11204   5
 -24  -2   5 18.1069 9.52446   3
 -24   2   5 28.8865 8.96399   3
  24   2  -5 37.1798 6.09948   5
 -22  -2   5 124.454 10.5377   6
 -22  -2   5 122.916 14.4302   3
  22  -2  -5 143.810 11.8860   5
 -22   2   5 102.425 7.89021   1
 -22   2   5 140.517 13.6274   3
 -22   2   5 113.225 8.26178   2
  22   2  -5 156.647 10.3496   5
 -20  -2   5 334.271 14.1883   6
  20  -2  -5 319.428 15.7503   5
 -20  -2   5 312.769 17.5020   3
 -20   2   5 320.490 11.4049   2
 -20   2   5 322.746 11.8207   6
  20   2  -5 311.726 13.6715   5
 -20   2   5 312.325 12.7560   1
 -20   2   5 330.488 17.5688   3
 -18  -2   5 601.606 13.8648   1
 -18  -2   5 592.848 19.1308   6
  18  -2  -5 609.993 21.1912   5
 -18  -2   5 637.887 23.4518   3
  18   2  -5 623.280 19.0592   5
 -18   2   5 646.280 22.5044   3
 -18   2   5 637.992 15.4986   2
 -18   2   5 599.060 16.6135   6
 -18   2   5 620.434 18.6734   1
  16  -2  -5 7.98236 6.58111   5
 -16  -2   5 5.42479 3.32017   1
 -16  -2   5 8.56176 6.16509   3
 -16  -2   5 1.20212 5.13413   6
  16   2  -5 9.81509 3.74997   1
 -16   2   5 14.8847 4.25322   6
 -16   2   5 9.37901 6.37971   3
 -16   2   5 1.32452 4.70318   1
  16   2  -5 6.57945 6.14860   5
 -14  -2   5 183.162 8.51357   1
  14  -2  -5 207.704 12.0503   5
 -14  -2   5 190.081 10.5137   6
 -14  -2   5 202.510 12.2072   3
  14  -2  -5 194.484 11.2859   3
 -14   2   5 173.460 10.4706   1
 -14   2   5 188.405 5.32070   2
 -14   2   5 198.846 12.1654   3
  14   2  -5 192.160 7.27118   6
 -14   2   5 187.070 9.19568   6
  14   2  -5 203.551 7.54216   6
  14   2  -5 190.785 9.22503   1
 -12  -2   5 268.349 11.5142   6
 -12  -2   5 269.364 13.5658   3
 -12  -2   5 261.478 10.6662   1
 -12  -2   5 278.030 11.8675   6
  12  -2  -5 270.902 12.3948   3
  12  -2  -5 249.108 12.2176   5
 -12   2   5 259.080 11.9983   1
  12   2  -5 282.083 13.0085   3
 -12   2   5 290.270 10.6566   6
 -12   2   5 275.303 10.4903   6
  12   2  -5 283.079 10.2175   6
  12   2  -5 260.994 9.45768   6
  12   2  -5 283.379 11.2266   1
 -12   2   5 282.930 13.3983   4
 -12   2   5 287.754 13.3242   3
  10  -2  -5 2601.29 43.8095   6
 -10  -2   5 2591.44 51.5216   3
 -10  -2   5 2544.79 48.7334   1
 -10  -2   5 2516.19 48.6057   6
  10  -2  -5 2534.80 43.0999   6
  10  -2  -5 2453.50 49.6822   3
  10  -2  -5 2469.18 50.1328   5
 -10  -2   5 2454.98 48.4268   6
  10   2  -5 2462.26 48.8509   1
 -10   2   5 2466.61 50.1445   1
 -10   2   5 2621.36 50.5179   3
 -10   2   5 2491.93 47.5428   6
 -10   2   5 2499.17 47.4851   6
 -10   2   5 2543.50 50.3767   4
  10   2  -5 2504.47 50.7423   3
  10   2  -5 2511.54 47.5743   6
  10   2  -5 2548.06 47.4769   6
  -8  -2   5 1017.37 25.6903   3
  -8  -2   5 1042.49 24.0877   6
   8  -2  -5 1070.91 35.1260   1
  -8  -2   5 1049.09 24.9820   1
  -8  -2   5 1061.82 24.2625   6
  -8  -2   5 1041.02 23.0127   2
   8  -2  -5 1046.75 22.1374   6
   8  -2  -5 995.674 24.7237   3
   8   2  -5 1049.41 24.2209   6
  -8   2   5 1028.30 23.7272   6
  -8   2   5 1021.98 25.8556   1
  -8   2   5 1099.87 28.6503   3
   8   2  -5 1045.73 25.7317   3
   8   2  -5 1033.92 25.2548   1
   8   2  -5 1070.47 24.1322   6
  -8   2   5 1055.58 23.8933   6
  -6  -2   5 65.3248 7.11322   1
   6  -2  -5 68.1152 6.93594   3
  -6  -2   5 60.6854 6.75051   6
  -6  -2   5 64.6698 6.76546   6
  -6  -2   5 62.4342 6.32479   2
   6  -2  -5 66.9900 6.62401   6
   6  -2  -5 62.0104 3.71156   2
  -6  -2   5 63.7429 7.25281   3
  -6   2   5 62.7776 6.97095   3
  -6   2   5 68.0485 7.62815   1
   6   2  -5 72.4070 7.49279   3
   6   2  -5 66.3885 7.31935   1
  -6   2   5 59.0386 7.05864   6
  -6   2   5 62.0727 7.00051   6
  -6   2   5 57.4959 6.18596   4
   6   2  -5 69.0142 6.83363   6
   6   2  -5 72.1200 7.15515   6
  -4  -2   5 404.301 14.2412   1
   4  -2  -5 391.131 13.1087   6
   4  -2  -5 393.305 11.9179   2
  -4  -2   5 402.460 12.5695   2
   4  -2  -5 375.525 13.9188   3
   4  -2  -5 383.023 12.7217   6
  -4  -2   5 416.803 14.4242   3
  -4  -2   5 388.368 11.6719   6
   4  -2  -5 384.289 12.9241   6
   4   2  -5 387.508 12.6551   6
  -4   2   5 370.961 12.1462   4
   4   2  -5 377.742 12.9512   6
   4   2  -5 380.821 12.3680   2
  -4   2   5 392.737 13.0671   6
  -4   2   5 404.395 12.9033   6
   4   2  -5 379.784 17.1163   1
  -4   2   5 404.382 14.5943   1
   4   2  -5 395.082 13.7571   3
  -2  -2   5 1330.03 25.0238   6
   2  -2  -5 1309.13 27.1757   2
  -2  -2   5 1375.01 29.3164   2
   2  -2  -5 1337.11 28.5735   6
  -2  -2   5 1298.73 30.4929   1
  -2  -2   5 1312.35 24.7984   4
   2  -2  -5 1352.16 31.9419   1
   2  -2  -5 1320.59 26.8542   4
   2  -2  -5 1328.12 28.7460   6
   2  -2  -5 1328.25 30.2125   3
  -2   2   5 1286.63 34.9906   6
   2   2  -5 1316.31 29.4129   3
   2   2  -5 1304.33 27.5423   6
   2   2  -5 1328.40 28.7814   2
  -2   2   5 1294.15 30.6437   1
   2   2  -5 1315.22 27.6047   6
  -2   2   5 1277.08 26.8356   4
  -2   2   5 1311.20 27.8570   6
   2   2  -5 1327.23 31.1543   1
   0  -2  -5 439.707 16.4289   1
   0  -2   5 458.523 22.4629   1
   0  -2   5 458.804 15.2812   2
   0  -2  -5 429.201 14.4010   6
   0  -2  -5 427.410 14.0162   6
   0  -2  -5 432.874 12.0548   4
   0  -2  -5 445.786 14.0563   2
   0   2   5 453.411 12.9175   6
   0   2  -5 438.158 12.8493   6
   0   2  -5 437.309 12.7733   6
   0   2   5 418.291 15.2038   1
   0   2   5 450.007 14.0962   6
   0   2   5 432.933 12.0529   4
   0   2  -5 414.528 14.5429   2
   0   2  -5 449.578 16.2816   1
   0   2  -5 446.324 15.2079   3
  -2  -2  -5 212.853 10.6417   6
   2  -2   5 226.241 11.7878   2
   2  -2   5 246.033 12.5175   1
  -2  -2  -5 224.888 10.4623   6
  -2  -2  -5 237.643 11.9974   1
  -2  -2  -5 243.159 8.43061   4
  -2   2  -5 223.113 8.53451   6
  -2   2  -5 223.609 8.51121   6
  -2   2  -5 208.236 10.7121   2
   2   2   5 241.845 8.22413   6
  -2   2  -5 231.082 12.3325   1
   2   2   5 230.899 8.03184   6
  -2   2  -5 215.940 13.0772   3
   2   2   5 233.430 8.43813   4
  -4  -2  -5 80.4474 9.23101   1
   4  -2   5 63.4799 8.19353   1
  -4  -2  -5 66.8281 5.45943   4
  -4  -2  -5 52.5843 7.48127   2
  -4  -2  -5 69.8555 8.10855   6
   4  -2   5 63.6775 8.16711   2
  -4   2  -5 65.0863 5.16731   6
   4   2   5 67.4783 8.10621   1
   4   2   5 66.6136 5.84916   4
  -4   2  -5 80.8338 8.94395   1
  -6  -2  -5 635.692 20.3747   1
   6  -2   5 637.662 21.1970   2
  -6  -2  -5 614.399 15.3697   4
  -6   2  -5 592.084 13.9130   6
  -6   2  -5 603.006 21.4586   5
  -6   2  -5 659.265 21.6366   1
   6   2   5 602.530 19.5301   1
  -8  -2  -5 766.565 18.6329   4
  -8  -2  -5 795.410 23.6743   1
  -8  -2  -5 799.932 21.5180   6
   8  -2   5 795.174 28.4087   2
  -8   2  -5 759.943 16.1413   6
  -8   2  -5 808.696 24.9199   1
   8   2   5 763.689 22.7623   1
 -10  -2  -5 180.750 12.3013   1
 -10  -2  -5 179.978 9.18579   4
 -10  -2  -5 202.554 9.17277   5
 -10  -2  -5 189.783 11.4820   6
  10   2   5 187.242 11.3237   1
 -10   2  -5 201.310 13.1544   1
 -12  -2  -5 51.4859 6.06373   4
 -12  -2  -5 72.7035 8.68091   6
 -12  -2  -5 64.7127 8.18318   6
 -12  -2  -5 75.2436 6.53781   5
 -12  -2  -5 37.4136 7.14441   1
  12   2   5 61.2603 7.53507   1
 -12   2  -5 58.7304 4.40714   6
 -12   2  -5 42.9295 8.01149   1
 -14  -2  -5 7.52983 7.26444   3
 -14  -2  -5 -8.4209 4.42091   1
 -14   2  -5 -6.8759 6.30347   3
 -14   2  -5 2.95822 5.68817   1
  23  -3  -5 8.41760 6.70562   5
 -23  -3   5 14.3986 6.38948   6
  23   3  -5 7.78949 4.95728   5
 -23   3   5 1.44520 7.42470   3
 -23   3   5 -3.1477 6.55154   4
 -21  -3   5 20.7197 8.24990   3
 -21  -3   5 30.2026 7.04045   6
  21  -3  -5 30.5250 7.63290   5
 -21   3   5 20.1307 7.56987   4
 -21   3   5 26.5851 7.81020   3
 -21   3   5 24.6078 3.97959   6
 -21   3   5 21.0263 4.16385   2
 -21   3   5 11.6287 5.41493   1
  21   3  -5 30.2525 5.88911   5
 -19  -3   5 1.71521 6.96520   3
 -19  -3   5 12.4940 6.09275   6
 -19   3   5 6.14194 3.13689   2
 -19   3   5 5.61631 5.16459   1
 -19   3   5 5.11699 6.46099   3
 -19   3   5 -0.3860 6.30022   4
  19   3  -5 12.5876 5.61463   5
 -17  -3   5 3.75591 10.2507   3
  17  -3  -5 0.45083 6.28303   5
 -17  -3   5 5.10643 5.82148   6
 -17   3   5 12.3211 4.27354   6
  17   3  -5 15.4414 6.16107   5
 -17   3   5 10.3859 5.23728   1
  17   3  -5 3.96757 3.16466   1
 -17   3   5 12.2094 6.39526   3
 -15  -3   5 41.2485 8.63324   3
  15  -3  -5 45.1372 8.40371   5
 -15  -3   5 47.8095 4.95124   1
 -15  -3   5 50.5437 7.77680   6
  15   3  -5 41.6610 5.05383   6
  15   3  -5 46.1896 5.41684   1
 -15   3   5 50.9475 8.34387   3
 -15   3   5 48.8267 5.86333   6
 -15   3   5 41.0927 6.66156   1
 -15   3   5 51.2436 8.41320   4
  15   3  -5 45.3075 4.98869   6
 -13  -3   5 41.4618 6.76677   6
 -13  -3   5 38.8646 4.96270   1
 -13  -3   5 38.8865 6.00788   6
 -13  -3   5 38.9087 7.31523   3
  13  -3  -5 52.9409 8.38146   5
  13  -3  -5 46.2338 6.97804   3
  13   3  -5 52.9953 6.09367   6
  13   3  -5 43.4621 5.29004   6
 -13   3   5 50.6260 6.15647   6
 -13   3   5 42.9971 6.92109   3
 -13   3   5 37.3240 7.05275   4
  13   3  -5 40.0358 5.67480   1
 -13   3   5 33.4176 6.40361   1
  11  -3  -5 67.9832 11.1232   3
 -11  -3   5 67.9794 7.68673   6
 -11  -3   5 57.6859 6.71113   6
  11  -3  -5 83.2577 9.33976   5
 -11  -3   5 59.0302 6.33431   1
 -11  -3   5 51.6526 7.35469   3
  11   3  -5 53.2320 6.28691   1
 -11   3   5 71.6298 6.83267   6
 -11   3   5 52.4399 8.05217   1
  11   3  -5 70.9743 7.14962   6
  11   3  -5 71.7649 7.12988   6
 -11   3   5 50.9240 7.18360   4
 -11   3   5 68.2822 6.90633   6
 -11   3   5 72.9344 7.97325   3
  11   3  -5 57.8031 7.37820   3
  -9  -3   5 154.157 9.11879   6
  -9  -3   5 153.159 9.33998   6
   9  -3  -5 153.572 10.2069   5
   9  -3  -5 145.459 9.07288   3
  -9  -3   5 161.003 9.94974   3
   9  -3  -5 159.838 6.20680   6
  -9  -3   5 169.032 9.06722   2
  -9  -3   5 162.862 9.47108   1
   9  -3  -5 159.895 6.01390   6
   9   3  -5 158.268 10.1152   3
   9   3  -5 155.329 9.50392   1
   9   3  -5 158.548 8.86844   6
  -9   3   5 159.882 10.3454   4
  -9   3   5 142.418 8.36978   6
  -9   3   5 146.157 8.63914   6
   9   3  -5 155.045 9.23179   6
  -7  -3   5 649.812 19.0385   3
   7  -3  -5 636.859 18.1536   3
  -7  -3   5 667.774 18.9328   1
   7  -3  -5 632.614 12.1068   2
  -7  -3   5 710.848 21.3266   6
  -7  -3   5 648.856 17.7999   4
  -7  -3   5 653.019 18.7483   6
  -7  -3   5 648.355 17.4604   2
   7  -3  -5 649.125 16.1227   6
   7  -3  -5 633.993 18.9067   5
  -7   3   5 644.091 18.5669   4
  -7   3   5 632.545 17.5425   6
   7   3  -5 629.099 18.2959   3
  -7   3   5 636.323 18.3660   3
  -7   3   5 600.181 17.2189   6
   7   3  -5 648.459 19.1734   1
   7   3  -5 642.225 17.8270   6
   7   3  -5 622.709 17.4409   6
   5  -3  -5 900.479 22.5609   5
  -5  -3   5 852.546 22.4580   3
  -5  -3   5 894.963 20.5873   4
   5  -3  -5 897.648 20.9332   6
   5  -3  -5 871.730 21.5524   4
   5  -3  -5 888.183 21.0981   6
   5  -3  -5 882.133 22.2784   3
   5  -3  -5 881.569 18.0826   2
  -5  -3   5 899.380 21.8414   2
  -5  -3   5 871.980 20.1666   6
  -5  -3   5 893.659 20.3928   6
   5  -3  -5 913.429 24.4820   1
  -5  -3   5 905.957 23.5886   1
   5   3  -5 853.438 21.4037   6
  -5   3   5 879.415 21.7242   6
  -5   3   5 901.642 21.8937   6
   5   3  -5 848.732 20.9779   6
  -5   3   5 871.361 21.7614   4
   5   3  -5 852.259 22.0573   3
   5   3  -5 872.575 23.6423   1
   3  -3  -5 158.473 9.21446   3
  -3  -3   5 169.579 9.57562   3
   3  -3  -5 171.240 9.53205   6
  -3  -3   5 168.309 7.06262   6
   3  -3  -5 175.808 7.72081   2
   3  -3  -5 187.699 11.7994   1
   3  -3  -5 172.038 9.20562   6
  -3  -3   5 171.670 7.53126   4
   3  -3  -5 174.761 8.72307   4
  -3   3   5 167.164 9.39539   6
   3   3  -5 166.728 8.82735   2
   3   3  -5 163.998 9.12178   3
  -3   3   5 172.457 9.47566   6
   3   3  -5 162.794 8.54240   6
   3   3  -5 156.459 8.81908   6
  -3   3   5 162.924 9.11784   4
   3   3  -5 184.977 11.3831   1
   1  -3  -5 2537.32 48.7868   2
   1  -3  -5 2596.83 49.9632   6
  -1  -3   5 2587.73 45.4039   4
  -1  -3   5 2539.00 52.6030   1
   1  -3  -5 2607.23 52.7759   1
   1  -3  -5 2528.79 49.5916   6
   1  -3  -5 2576.03 48.4675   4
   1  -3  -5 2571.16 49.8520   6
  -1  -3   5 2644.77 51.3525   2
   1   3  -5 2738.36 61.1615   2
  -1   3   5 2582.91 49.1066   6
  -1   3   5 2591.06 49.2360   6
   1   3  -5 2568.44 48.0123   6
   1   3  -5 2685.33 53.5907   1
   1   3  -5 2609.38 48.1850   6
  -1   3   5 2499.11 48.4825   4
  -1   3   5 2587.64 57.1525   1
   1   3  -5 2595.95 50.4144   3
   1  -3   5 1205.50 21.4206   4
  -1  -3  -5 1191.41 25.5901   4
  -1  -3  -5 1190.43 27.6795   2
  -1  -3  -5 1180.24 29.7561   6
   1  -3   5 1201.78 29.0770   2
  -1  -3  -5 1198.38 27.5999   6
  -1  -3  -5 1235.19 30.4875   1
   1  -3   5 1209.40 30.1116   1
  -1  -3  -5 1165.45 27.3429   6
  -1   3  -5 1220.21 30.8346   1
  -1   3  -5 1174.87 27.8026   3
   1   3   5 1186.01 25.8196   4
   1   3   5 1167.67 29.3406   1
  -1   3  -5 1215.22 28.9442   2
   1   3   5 1223.06 25.9492   6
  -1   3  -5 1175.29 24.6896   6
  -1   3  -5 1206.00 24.7971   6
   1   3   5 1163.07 26.1871   6
  -3  -3  -5 212.577 11.5889   2
  -3  -3  -5 239.357 12.2782   6
  -3  -3  -5 225.472 11.2164   6
   3  -3   5 245.136 14.2271   1
  -3  -3  -5 224.668 11.6555   6
  -3  -3  -5 236.841 12.9191   1
  -3  -3  -5 221.522 9.41870   4
   3  -3   5 230.041 12.2982   2
   3   3   5 234.523 8.76187   6
   3   3   5 223.815 9.36418   4
   3   3   5 227.820 8.50637   6
   3   3   5 229.285 12.1196   1
  -3   3  -5 209.257 8.06764   6
  -3   3  -5 233.700 13.5554   1
  -5  -3  -5 630.340 19.4648   6
  -5  -3  -5 621.829 19.1393   6
   5  -3   5 650.038 21.0713   2
  -5  -3  -5 654.572 21.2240   1
  -5  -3  -5 633.293 16.8347   4
   5   3   5 632.610 17.1240   4
  -5   3  -5 609.479 13.9560   6
   5   3   5 645.824 20.2655   1
  -5   3  -5 640.735 22.1078   1
   7  -3   5 3.44567 6.01790   2
  -7  -3  -5 -2.7761 5.63400   1
  -7  -3  -5 2.69540 5.85933   6
  -7  -3  -5 2.53488 3.94351   4
  -7  -3  -5 6.46363 6.22067   6
   7   3   5 3.00658 4.90710   1
  -7   3  -5 4.12162 5.75492   1
  -9  -3  -5 376.061 16.2598   1
  -9  -3  -5 392.589 11.7473   5
  -9  -3  -5 398.758 16.3623   6
  -9  -3  -5 393.420 13.7313   4
  -9  -3  -5 399.248 16.3907   6
   9  -3   5 421.949 19.0059   2
  -9   3  -5 434.122 18.5615   1
   9   3   5 402.117 16.0859   1
 -11  -3  -5 260.116 13.8090   6
 -11  -3  -5 215.967 12.7593   1
 -11  -3  -5 234.097 13.2334   6
 -11  -3  -5 245.452 8.38896   5
 -11   3  -5 225.116 14.3644   1
  11   3   5 218.378 12.3882   1
 -13  -3  -5 72.5662 9.23326   6
 -13  -3  -5 71.4239 7.93274   4
  13   3   5 57.8900 7.51445   1
 -13   3  -5 79.4897 11.3873   1
 -22  -4   5 12.4743 8.57038   3
  22  -4  -5 6.14250 7.39108   5
 -22   4   5 6.18783 6.39503   3
  22   4  -5 8.49151 4.52505   5
 -22   4   5 12.1854 7.36123   4
 -20  -4   5 2.00883 7.75744   6
 -20  -4   5 -0.7181 6.77655   3
  20  -4  -5 3.57430 6.81459   5
 -20   4   5 14.4754 4.07963   6
  20   4  -5 3.37666 4.44097   5
 -20   4   5 2.55465 6.55913   4
 -20   4   5 3.38304 3.13354   2
 -18  -4   5 273.450 16.3365   3
  18  -4  -5 258.982 15.1927   5
 -18  -4   5 298.609 21.2990   6
 -18   4   5 249.225 8.84075   2
 -18   4   5 247.557 15.4192   4
 -18   4   5 258.177 15.7330   6
 -18   4   5 265.284 14.6173   3
  18   4  -5 274.118 12.4809   5
  18   4  -5 250.627 8.24104   1
  16  -4  -5 3.88534 6.14557   5
 -16  -4   5 8.58037 10.6011   6
 -16  -4   5 -4.9474 6.30270   3
 -16   4   5 5.26536 5.48565   3
  16   4  -5 0.95243 4.13738   6
  16   4  -5 0.89186 3.85865   6
  16   4  -5 2.51796 3.78153   1
 -16   4   5 4.26890 4.12571   6
 -14  -4   5 66.0953 9.24230   3
  14  -4  -5 56.5784 7.35074   3
  14  -4  -5 76.2822 9.95529   5
 -14  -4   5 68.7099 6.67182   1
 -14   4   5 72.6495 9.56050   4
 -14   4   5 63.4033 8.77913   1
  14   4  -5 66.5072 7.23123   6
 -14   4   5 81.3292 8.89596   3
 -14   4   5 59.6353 6.48969   6
  14   4  -5 57.2488 6.41123   1
  14   4  -5 55.0005 6.54962   6
 -12  -4   5 538.429 17.8661   6
  12  -4  -5 542.309 19.7335   3
  12  -4  -5 527.867 18.9770   5
 -12  -4   5 559.518 16.4121   1
 -12  -4   5 604.179 26.2983   6
 -12  -4   5 543.514 19.0101   3
 -12   4   5 555.029 19.1563   4
 -12   4   5 532.116 15.7584   6
  12   4  -5 524.274 16.1786   6
  12   4  -5 536.964 16.6140   1
  12   4  -5 539.005 16.5697   6
 -12   4   5 546.154 17.5092   3
 -12   4   5 544.295 19.6821   1
 -10  -4   5 426.467 16.4672   3
 -10  -4   5 413.311 14.9428   6
  10  -4  -5 418.291 14.3739   3
 -10  -4   5 393.583 14.4779   6
 -10  -4   5 422.516 15.8306   4
 -10  -4   5 433.887 14.9014   1
  10  -4  -5 442.551 16.6542   5
  10   4  -5 403.644 15.3387   3
 -10   4   5 428.367 15.3286   3
  10   4  -5 420.526 14.6002   6
  10   4  -5 421.546 15.2909   1
 -10   4   5 421.417 16.2508   4
 -10   4   5 417.158 16.5762   1
 -10   4   5 443.100 16.1947   6
  10   4  -5 414.082 14.3722   6
   8  -4  -5 1904.77 34.5213   6
  -8  -4   5 1914.78 38.8359   6
   8  -4  -5 1889.99 34.5857   6
   8  -4  -5 1863.69 38.8195   3
  -8  -4   5 1894.07 38.5790   6
  -8  -4   5 1935.50 40.4825   3
  -8  -4   5 1908.41 39.4065   2
   8  -4  -5 1853.27 40.5038   5
  -8  -4   5 1845.36 40.0061   1
   8   4  -5 1865.30 39.8517   6
  -8   4   5 1957.63 42.4386   3
   8   4  -5 1953.00 40.7759   1
   8   4  -5 1787.83 38.3064   6
  -8   4   5 1840.48 41.8235   1
  -8   4   5 1872.94 38.4635   6
  -8   4   5 1909.92 40.6508   4
  -8   4   5 1831.36 38.0705   6
  -8   4   5 1847.41 38.1037   6
   8   4  -5 1894.64 43.7511   3
   6  -4  -5 163.360 9.91746   4
   6  -4  -5 154.787 9.11973   3
   6  -4  -5 178.811 10.6959   5
  -6  -4   5 157.381 8.43083   6
   6  -4  -5 157.212 9.89477   6
  -6  -4   5 145.367 8.36007   6
  -6  -4   5 176.026 9.71759   2
   6  -4  -5 162.114 8.32633   6
  -6  -4   5 157.495 9.00809   4
   6   4  -5 142.396 9.51547   6
  -6   4   5 137.328 10.6301   1
  -6   4   5 155.887 9.35639   6
  -6   4   5 157.842 9.66719   6
   6   4  -5 149.687 9.29334   3
   6   4  -5 153.770 10.0262   1
  -6   4   5 169.350 9.76403   4
   6   4  -5 148.958 9.04608   6
  -4  -4   5 21.1276 5.21033   3
  -4  -4   5 14.1298 4.21782   4
  -4  -4   5 15.8696 3.86617   6
   4  -4  -5 25.5205 5.33907   4
   4  -4  -5 19.7354 5.29913   5
  -4  -4   5 20.0207 5.27291   1
  -4  -4   5 23.1251 4.11483   6
  -4  -4   5 27.2153 5.98841   2
   4  -4  -5 12.6853 4.95681   3
   4  -4  -5 19.0299 4.71078   6
   4  -4  -5 13.8148 4.99383   6
   4   4  -5 11.7981 5.25741   1
  -4   4   5 20.6501 5.53189   1
  -4   4   5 12.3785 4.98873   4
   4   4  -5 18.1411 4.74543   3
  -4   4   5 17.3617 5.29160   6
   4   4  -5 28.2072 5.45060   6
   4   4  -5 16.8404 5.13330   6
  -4   4   5 24.8223 5.43891   6
   2  -4  -5 176.419 9.63628   4
  -2  -4   5 184.921 10.6850   1
  -2  -4   5 173.663 10.5020   2
  -2  -4   5 178.690 7.86287   4
   2  -4  -5 171.474 10.1761   6
   2  -4  -5 168.166 9.63080   6
   2   4  -5 170.074 9.29987   3
   2   4  -5 169.453 11.0108   1
  -2   4   5 150.028 14.1173   4
  -2   4   5 164.336 11.3968   1
  -2   4   5 183.382 10.4642   6
   2   4  -5 163.225 8.79674   6
  -2   4   5 158.866 10.0980   6
   2   4  -5 167.257 9.87160   2
   2   4  -5 144.951 8.27507   6
   0  -4  -5 3.85299 6.45366   6
   0  -4   5 -3.4283 4.48581   1
   0  -4  -5 1.70014 4.40763   5
   0  -4   5 -2.7961 4.66059   2
   0  -4  -5 4.74497 4.15300   4
   0  -4  -5 3.92562 4.66289   6
   0  -4   5 0.02997 2.79006   4
   0   4  -5 0.92146 3.55900   6
   0   4  -5 3.47097 3.61437   6
   0   4   5 -0.4457 4.18830   4
   0   4  -5 -0.3233 4.23702   2
   0   4  -5 0.10507 4.00321   3
   0   4   5 -1.1479 4.21547   6
   0   4  -5 1.94129 5.49189   1
   0   4   5 -3.6367 4.31111   6
   0   4   5 -5.7810 4.72107   1
   2  -4   5 45.3303 4.24356   4
  -2  -4  -5 50.7211 6.34981   4
  -2  -4  -5 49.1957 7.42690   6
  -2  -4  -5 54.1118 7.35050   6
   2  -4   5 38.3772 6.55547   2
   2   4   5 49.7738 6.41307   6
  -2   4  -5 49.6382 5.30958   6
   2   4   5 49.1603 6.39737   6
  -2   4  -5 35.5395 5.97232   3
   2   4   5 44.8150 7.03275   1
  -2   4  -5 50.1935 8.35166   1
   2   4   5 47.8216 6.31098   4
   4  -4   5 241.003 13.5522   2
  -4  -4  -5 240.255 10.9511   4
  -4  -4  -5 238.195 13.0400   6
   4   4   5 237.300 9.69862   6
  -4   4  -5 231.828 11.7864   3
  -4   4  -5 256.879 14.8691   1
   4   4   5 221.341 13.0405   1
   4   4   5 233.716 9.52855   6
  -4   4  -5 232.679 8.21241   6
  -6  -4  -5 3.78967 6.27887   6
   6  -4   5 -0.2953 5.28694   2
  -6  -4  -5 -6.8444 3.84519   4
   6   4   5 -0.6626 4.98419   1
  -6   4  -5 2.18019 2.29883   6
   6   4   5 -1.4736 4.49305   4
  -6   4  -5 -2.1421 6.20359   1
  -8  -4  -5 0.76474 4.46695   4
   8  -4   5 6.34940 6.39314   2
  -8  -4  -5 0.70494 5.95947   6
   8   4   5 1.59649 5.14785   1
  -8   4  -5 7.78680 6.50283   1
  10  -4   5 69.5019 9.84159   2
 -10  -4  -5 81.2134 8.54112   4
 -10  -4  -5 73.5831 9.74193   6
 -10   4  -5 98.3945 11.4469   1
  10   4   5 67.5820 9.57438   1
 -12  -4  -5 2.65116 6.53959   6
  12  -4   5 10.5045 7.72342   2
 -12   4  -5 13.6654 7.41377   1
 -14  -4  -5 7.10908 7.50241   3
 -14   4  -5 29.4273 8.06487   1
 -14   4  -5 34.6160 7.72526   3
 -21  -5   5 8.33269 7.85647   3
 -21  -5   5 4.39995 6.16153   6
  21  -5  -5 8.04952 7.72394   5
 -21   5   5 0.66194 5.93620   3
 -21   5   5 2.92406 6.93998   4
  19  -5  -5 8.51627 7.28354   5
 -19  -5   5 4.72773 6.63529   6
 -19  -5   5 2.60237 7.51198   3
  19   5  -5 5.87506 4.53143   5
 -19   5   5 -0.6633 6.34860   4
 -19   5   5 6.52000 6.15798   3
 -19   5   5 14.9327 4.13912   6
 -17  -5   5 19.9531 7.32760   6
 -17  -5   5 7.90983 7.34263   3
  17  -5  -5 23.2856 8.19503   5
 -17   5   5 31.2761 7.97868   4
 -17   5   5 34.3866 6.41396   6
  17   5  -5 20.6784 5.10630   6
 -17   5   5 12.4762 6.06943   3
  17   5  -5 25.6929 4.85172   6
  17   5  -5 20.7366 4.46576   1
  15  -5  -5 18.9021 5.48314   3
 -15  -5   5 28.4724 7.46094   6
 -15  -5   5 13.1221 7.50935   3
  15   5  -5 16.0246 5.03880   6
 -15   5   5 12.7740 5.57118   3
 -15   5   5 13.9941 8.45202   4
  15   5  -5 18.8096 6.15876   6
  15   5  -5 12.6732 4.65601   1
 -15   5   5 17.1124 4.70052   6
  13  -5  -5 161.746 12.5758   5
 -13  -5   5 150.354 11.1023   6
 -13  -5   5 137.410 11.6343   6
 -13  -5   5 147.295 12.4346   3
  13  -5  -5 140.609 9.29600   3
 -13   5   5 141.772 12.1346   4
  13   5  -5 138.062 9.72285   6
 -13   5   5 149.833 10.5685   3
  13   5  -5 144.761 10.4773   6
  13   5  -5 129.840 10.4098   1
 -13   5   5 153.781 9.11694   6
  11  -5  -5 42.3763 6.30102   3
 -11  -5   5 45.5894 8.06804   3
 -11  -5   5 59.1475 8.07385   6
  11  -5  -5 33.7081 7.35759   5
 -11  -5   5 44.1658 7.31177   6
  11   5  -5 44.4139 7.33630   6
 -11   5   5 51.9627 7.00163   3
  11   5  -5 40.6585 6.63785   1
 -11   5   5 50.1829 8.37209   4
  11   5  -5 44.5535 6.82638   6
 -11   5   5 51.6502 6.68203   6
  -9  -5   5 27.3010 6.11239   6
  -9  -5   5 36.1261 6.80621   2
  -9  -5   5 18.2919 5.84170   3
   9  -5  -5 31.4586 5.36573   3
  -9  -5   5 24.8279 5.62555   6
  -9  -5   5 32.9317 6.08978   1
   9  -5  -5 31.5368 7.35031   5
   9  -5  -5 24.4072 2.90733   2
  -9  -5   5 28.8838 6.53264   4
   9   5  -5 26.7969 5.55354   3
   9   5  -5 24.1927 6.12223   6
   9   5  -5 23.5932 6.11581   1
  -9   5   5 25.7514 6.67411   4
   9   5  -5 38.4375 6.58618   6
  -9   5   5 36.2513 6.31067   6
   7  -5  -5 1297.32 26.0249   6
   7  -5  -5 1307.56 25.9966   6
  -7  -5   5 1264.70 31.2058   1
   7  -5  -5 1284.01 40.2189   4
   7  -5  -5 1311.97 29.2953   3
  -7  -5   5 1304.60 30.3239   4
  -7  -5   5 1287.61 28.5750   6
  -7  -5   5 1346.49 30.5819   3
   7  -5  -5 1327.10 31.6626   5
  -7  -5   5 1312.17 30.9756   2
  -7  -5   5 1261.46 28.4255   6
  -7   5   5 1308.11 31.4573   4
   7   5  -5 1205.39 33.5489   6
  -7   5   5 1275.88 29.5889   6
   7   5  -5 1249.65 29.2174   6
  -7   5   5 1245.29 29.2554   6
  -7   5   5 1251.06 29.1943   6
   7   5  -5 1313.24 31.9890   1
   5  -5  -5 226.878 10.1022   6
   5  -5  -5 200.892 10.1997   3
  -5  -5   5 222.217 11.8240   1
   5  -5  -5 217.147 11.0102   4
  -5  -5   5 226.668 9.38836   6
  -5  -5   5 231.078 11.9010   2
  -5  -5   5 235.868 11.0374   4
  -5  -5   5 178.893 8.40158   6
   5  -5  -5 229.444 11.7782   5
   5  -5  -5 226.118 9.89410   6
  -5   5   5 247.494 18.2286   6
  -5   5   5 241.883 12.4045   4
   5   5  -5 222.797 13.1263   1
  -5   5   5 218.152 13.0078   6
   5   5  -5 233.209 10.8585   3
  -5   5   5 208.766 11.4233   6
   5   5  -5 210.710 10.9999   6
   5   5  -5 205.341 10.2901   6
  -3  -5   5 51.2490 7.37919   2
  -3  -5   5 55.4013 4.03191   6
  -3  -5   5 63.3259 6.89174   3
  -3  -5   5 55.2329 4.34918   6
   3  -5  -5 58.7699 7.68975   5
   3  -5  -5 56.3697 7.03920   4
   3  -5  -5 63.9003 7.15842   6
  -3  -5   5 60.3239 6.29568   4
  -3   5   5 56.9330 7.44474   4
   3   5  -5 63.1831 7.52744   6
   3   5  -5 59.2676 6.28547   3
  -3   5   5 56.1423 7.05065   6
   3   5  -5 55.2221 8.57091   1
   3   5  -5 59.1842 6.67226   6
  -3   5   5 58.7955 6.98410   6
   1  -5  -5 97.2213 9.18748   6
   1  -5  -5 81.8968 7.96063   5
   1  -5  -5 88.1059 9.17601   6
  -1  -5   5 81.3775 6.67507   4
   1  -5  -5 82.4033 8.28671   4
  -1  -5   5 94.9026 9.63573   2
  -1   5   5 85.2018 9.01518   6
   1   5  -5 88.3809 7.82533   3
   1   5  -5 99.8302 9.89144   1
  -1   5   5 98.8997 9.32646   6
  -1   5   5 88.7340 8.89344   4
   1   5  -5 88.7588 7.79239   6
  -1  -5  -5 289.206 12.5202   4
   1  -5   5 303.249 14.3102   2
   1  -5   5 279.334 9.76202   4
  -1  -5  -5 281.951 13.2917   6
  -1  -5  -5 286.834 11.4483   5
  -1  -5  -5 284.242 13.8368   6
  -1   5  -5 267.872 9.71428   4
   1   5   5 281.585 13.2600   4
  -1   5  -5 281.549 15.5436   1
   1   5   5 279.415 12.8613   6
   1   5   5 278.132 13.7833   6
  -1   5  -5 270.428 10.6097   6
  -1   5  -5 267.215 11.4313   3
  -3  -5  -5 1357.99 32.6397   6
  -3  -5  -5 1358.20 32.6455   6
   3  -5   5 1371.23 27.0204   4
  -3  -5  -5 1396.25 29.1068   5
   3  -5   5 1380.00 34.6941   2
  -3  -5  -5 1342.24 31.4440   4
   3   5   5 1356.85 30.4626   6
  -3   5  -5 1396.41 27.1583   4
   3   5   5 1346.51 30.4622   6
  -3   5  -5 1387.67 36.2826   1
   3   5   5 1386.58 32.0495   4
  -3   5  -5 1316.58 30.5480   3
  -3   5  -5 1334.31 27.5739   6
  -5  -5  -5 29.6601 9.26496   6
   5  -5   5 27.2094 6.67398   2
  -5  -5  -5 23.3451 6.14596   4
  -5  -5  -5 32.9140 5.24809   5
   5   5   5 36.5093 7.05301   4
   5   5   5 35.7875 5.83227   6
   5   5   5 40.0288 5.86390   6
  -5   5  -5 39.8794 4.27611   4
  -5   5  -5 36.4849 6.07286   3
  -5   5  -5 22.5045 7.10995   1
  -5   5  -5 44.1968 4.44834   6
   7  -5   5 58.5975 8.89071   2
  -7  -5  -5 75.1546 8.37237   4
  -7  -5  -5 78.4970 6.25036   5
  -7   5  -5 77.1431 4.97147   4
  -7   5  -5 65.5797 8.02010   3
   7   5   5 67.6006 8.26427   4
  -7   5  -5 81.1786 10.6949   1
  -9  -5  -5 77.8300 11.7473   6
  -9  -5  -5 90.9053 4.75210   5
   9  -5   5 46.6710 9.32809   2
  -9   5  -5 76.1477 10.9641   1
  -9   5  -5 77.7157 5.03223   4
  11  -5   5 252.162 16.0958   2
 -11  -5  -5 226.473 16.9906   6
 -11   5  -5 212.961 7.42315   4
 -11   5  -5 261.264 16.3125   1
 -13  -5  -5 181.028 19.5599   6
  13  -5   5 139.796 20.3715   2
 -13  -5  -5 142.136 15.8645   3
 -13   5  -5 204.149 14.8119   1
 -13   5  -5 181.015 13.2212   3
 -20  -6   5 126.234 12.9647   6
 -20  -6   5 91.9539 12.3239   3
  20  -6  -5 131.977 14.1628   5
 -20   6   5 115.664 13.7684   4
 -20   6   5 126.834 11.0092   3
 -18  -6   5 63.3574 9.46297   6
 -18  -6   5 68.6937 10.5314   3
  18  -6  -5 65.6985 10.0792   5
  18   6  -5 96.9803 11.0587   6
 -18   6   5 91.7515 12.1307   4
  18   6  -5 72.1672 6.31377   1
 -18   6   5 95.0564 9.55257   3
  18   6  -5 85.3554 6.98962   6
 -18   6   5 77.8317 7.29490   6
  16  -6  -5 52.7070 9.83594   5
  16  -6  -5 46.9322 7.89324   3
 -16  -6   5 48.6742 8.82433   6
 -16  -6   5 40.7908 9.31227   3
  16   6  -5 45.4262 5.97320   1
 -16   6   5 44.2313 8.44075   4
 -16   6   5 46.4402 6.05322   6
  16   6  -5 49.5467 9.32239   6
 -16   6   5 45.6456 7.18375   3
  16   6  -5 37.9698 6.49680   6
 -14  -6   5 47.0531 8.94247   3
 -14  -6   5 49.1354 8.50336   6
  14  -6  -5 69.9901 7.73269   3
 -14  -6   5 56.4570 9.27777   6
  14  -6  -5 45.4202 9.38437   5
  14   6  -5 42.3690 6.69295   1
  14   6  -5 54.1331 7.78434   6
 -14   6   5 41.8450 6.80872   3
 -14   6   5 60.0189 7.01900   6
 -14   6   5 47.8394 8.87952   4
  14   6  -5 45.7400 6.81472   6
  12  -6  -5 1003.40 19.7737   2
  12  -6  -5 974.827 24.7749   3
 -12  -6   5 1035.97 27.5496   6
 -12  -6   5 1020.30 28.7550   3
 -12  -6   5 997.767 26.7467   6
  12  -6  -5 1049.18 29.6755   5
 -12   6   5 1036.38 25.4969   3
  12   6  -5 1015.43 26.4415   6
  12   6  -5 988.451 26.0393   6
 -12   6   5 977.524 24.5389   6
  12   6  -5 1022.12 26.9017   1
 -12   6   5 988.215 28.9106   4
 -10  -6   5 945.204 25.0868   6
  10  -6  -5 940.723 23.3586   3
  10  -6  -5 942.780 19.3334   2
  10  -6  -5 943.435 26.9563   5
 -10  -6   5 920.928 24.6932   6
 -10  -6   5 937.460 26.1452   3
  10   6  -5 915.023 24.8230   6
  10   6  -5 935.211 26.0608   1
  10   6  -5 936.142 25.7681   6
 -10   6   5 956.821 27.3346   4
 -10   6   5 940.004 24.0748   6
   8  -6  -5 165.557 7.30567   2
   8  -6  -5 160.932 9.36870   3
  -8  -6   5 173.215 10.5160   6
   8  -6  -5 159.048 11.8976   5
  -8  -6   5 164.764 9.85150   6
  -8  -6   5 160.541 10.7570   2
  -8  -6   5 147.707 10.3448   3
   8   6  -5 171.060 10.6361   3
  -8   6   5 177.374 11.7628   4
   8   6  -5 162.775 11.9323   1
  -8   6   5 165.783 10.7863   6
   8   6  -5 173.563 11.3786   6
   6  -6  -5 17.0871 5.93736   6
  -6  -6   5 13.8448 5.60781   2
   6  -6  -5 16.2393 4.81698   3
  -6  -6   5 22.0051 5.98201   3
   6  -6  -5 21.2450 6.42906   5
   6  -6  -5 16.9371 4.67210   6
  -6  -6   5 19.6853 4.95977   6
  -6  -6   5 17.0940 5.59348   4
  -6   6   5 21.8238 6.29267   6
  -6   6   5 9.82422 5.90082   4
   6   6  -5 21.3081 5.46699   6
   6   6  -5 13.8347 6.06214   6
   6   6  -5 16.5361 5.24676   3
   6   6  -5 7.37304 6.25377   1
   4  -6  -5 338.872 14.6783   5
  -4  -6   5 368.380 14.7118   4
  -4  -6   5 349.952 10.2765   6
  -4  -6   5 358.904 10.3161   6
   4  -6  -5 346.018 15.7650   3
   4  -6  -5 356.112 12.9963   6
  -4  -6   5 368.264 15.1360   2
   4  -6  -5 384.206 13.4292   6
  -4  -6   5 371.483 13.6852   3
   4   6  -5 360.412 13.1909   3
  -4   6   5 338.431 14.3690   6
  -4   6   5 342.012 14.3678   6
   4   6  -5 365.695 16.1158   1
  -4   6   5 381.613 19.7633   6
   4   6  -5 396.285 14.7940   6
  -4   6   5 344.783 15.0258   4
   2  -6  -5 871.140 23.5571   3
  -2  -6   5 881.444 22.3936   4
   2  -6  -5 903.793 23.6808   5
   2  -6  -5 895.479 23.9777   6
  -2  -6   5 947.701 26.3089   2
   2  -6  -5 926.260 23.9485   6
  -2   6   5 861.258 23.8827   6
  -2   6   5 921.525 25.7949   4
   2   6  -5 900.148 23.0799   6
  -2   6   5 917.230 24.5255   6
   2   6  -5 902.272 27.3953   1
   2   6  -5 873.133 21.8626   3
   2   6  -5 901.493 25.5254   4
   0  -6   5 763.443 23.5186   2
   0  -6  -5 706.690 21.4162   6
   0  -6   5 711.930 18.9280   4
   0  -6  -5 708.972 21.4340   6
   0  -6  -5 728.883 19.9563   5
   0   6  -5 715.731 19.2501   3
   0   6   5 722.322 22.2661   4
   0   6  -5 709.527 19.3846   6
   0   6  -5 779.339 25.1574   1
   0   6   5 719.558 21.5210   6
   0   6   5 709.428 21.1343   6
   0   6  -5 709.874 19.1722   4
   2  -6   5 231.822 13.6858   2
  -2  -6  -5 248.893 14.9519   6
  -2  -6  -5 236.344 13.5038   6
   2  -6   5 227.378 9.79081   4
  -2   6  -5 251.550 15.3972   1
  -2   6  -5 217.805 10.2168   3
   2   6   5 205.985 15.9827   6
   2   6   5 242.207 12.6622   6
   2   6   5 225.597 13.3631   4
  -2   6  -5 220.311 10.0120   4
  -2   6  -5 235.230 10.0409   6
  -4  -6  -5 101.076 11.5245   6
   4  -6   5 125.210 17.9779   2
   4  -6   5 123.322 7.17807   4
  -4  -6  -5 109.359 8.00623   5
   4   6   5 133.127 13.6968   6
  -4   6  -5 108.922 8.35069   6
   4   6   5 111.684 12.3394   6
  -4   6  -5 119.258 12.8519   1
  -4   6  -5 106.726 8.09028   3
  -4   6  -5 119.683 7.61541   4
   4   6   5 101.856 10.2296   4
  -6  -6  -5 164.841 13.3273   6
  -6  -6  -5 165.427 7.95105   5
   6  -6   5 153.010 13.0936   2
  -6   6  -5 154.878 7.90567   4
   6   6   5 155.100 9.35889   6
  -6   6  -5 143.208 14.1620   1
  -6   6  -5 153.412 7.07895   6
  -6   6  -5 145.159 9.34390   3
   6   6   5 148.218 11.6513   4
   6   6   5 169.932 9.14728   6
  -8  -6  -5 38.4944 4.08678   5
  -8  -6  -5 44.8712 8.92382   6
   8  -6   5 35.5949 8.50563   2
  -8   6  -5 42.8533 8.96108   1
  -8   6  -5 32.2430 4.72065   4
   8   6   5 35.6299 7.59802   4
 -10  -6  -5 127.808 13.1835   6
  10  -6   5 137.723 13.6879   2
 -10   6  -5 136.490 14.0884   1
 -10   6  -5 90.6933 6.53333   4
 -12  -6  -5 8.09447 12.7205   3
 -12  -6  -5 -2.6202 7.39533   6
 -12   6  -5 22.4926 8.03177   1
 -12   6  -5 7.86112 5.13871   3
 -19  -7   5 5.28251 8.65486   3
 -19  -7   5 10.6675 7.89671   6
  19  -7  -5 3.66752 8.21089   5
 -19   7   5 -1.4706 4.81042   3
  19   7  -5 0.74088 4.09024   6
 -19   7   5 -7.5988 6.55336   4
  19   7  -5 4.93372 3.84614   1
  19   7  -5 -0.1975 4.49335   6
 -17  -7   5 2.23529 7.29907   3
  17  -7  -5 20.8807 9.25182   5
 -17   7   5 28.2206 6.18527   3
  17   7  -5 15.1381 5.59720   6
 -17   7   5 16.3889 8.32341   4
 -17   7   5 32.9797 5.32652   6
  17   7  -5 35.1460 6.67084   6
  15  -7  -5 -0.1758 4.21731   3
  15  -7  -5 8.57423 3.13392   2
 -15  -7   5 14.8036 7.06445   3
 -15  -7   5 4.12548 6.79811   6
  15  -7  -5 6.30230 6.84586   5
 -15   7   5 9.84506 5.27323   3
  15   7  -5 2.80068 4.67453   1
  15   7  -5 2.06922 5.47787   6
 -15   7   5 10.7407 7.31958   4
 -15   7   5 13.5956 4.51734   6
  15   7  -5 -5.6202 4.82677   6
  13  -7  -5 4.57981 3.98701   3
 -13  -7   5 8.83650 6.58623   6
 -13  -7   5 2.88026 6.17467   6
  13  -7  -5 1.45017 2.83920   2
 -13  -7   5 0.27136 6.12179   3
  13  -7  -5 -4.3958 6.75142   5
  13   7  -5 0.98415 5.06814   1
 -13   7   5 6.30616 6.96066   4
 -13   7   5 7.94480 5.00052   6
 -13   7   5 6.98675 4.79503   3
  13   7  -5 1.55664 5.55997   6
  13   7  -5 -5.6372 4.77633   6
  11  -7  -5 103.415 10.8530   5
 -11  -7   5 94.7469 10.2222   3
  11  -7  -5 90.1753 7.60401   3
 -11  -7   5 94.3739 9.79433   6
  11  -7  -5 78.5404 6.19587   2
 -11  -7   5 104.846 10.3489   6
  11   7  -5 103.192 10.8321   1
  11   7  -5 92.9762 10.2811   6
 -11   7   5 103.450 12.0744   4
 -11   7   5 91.8227 9.53899   6
  11   7  -5 94.8123 9.87195   6
  -9  -7   5 277.931 13.4296   6
   9  -7  -5 276.313 11.4085   3
   9  -7  -5 299.927 10.2035   2
   9  -7  -5 272.590 14.7255   5
  -9  -7   5 280.334 15.0672   2
  -9  -7   5 302.259 14.3010   3
  -9  -7   5 263.226 13.8359   6
   9   7  -5 301.649 14.7513   6
   9   7  -5 284.225 13.9398   6
  -9   7   5 283.810 15.9203   4
   9   7  -5 301.624 15.3085   1
  -9   7   5 269.465 13.5212   6
   9   7  -5 308.043 15.6446   3
   7  -7  -5 88.0139 5.31345   6
   7  -7  -5 82.4048 5.31319   6
  -7  -7   5 78.4575 8.60294   3
  -7  -7   5 80.7843 8.21622   6
  -7  -7   5 99.3634 10.8169   2
   7  -7  -5 83.5913 8.04540   3
   7  -7  -5 76.6029 9.58619   5
   7   7  -5 98.8894 11.1843   1
   7   7  -5 97.3404 8.52684   3
  -7   7   5 116.219 11.5217   4
  -7   7   5 91.5034 10.1903   6
   7   7  -5 103.089 10.6219   6
  -5  -7   5 37.7168 5.11862   6
   5  -7  -5 31.8417 5.98121   3
  -5  -7   5 29.1945 6.68985   2
  -5  -7   5 34.3097 6.35343   3
  -5  -7   5 40.8880 5.25838   6
   5  -7  -5 36.2017 5.96673   6
   5  -7  -5 24.8518 7.37870   5
  -5   7   5 40.7254 7.88598   4
   5   7  -5 41.1069 8.37414   1
   5   7  -5 40.7090 7.65223   6
   5   7  -5 35.5678 5.66888   3
   3  -7  -5 226.651 11.6479   6
  -3  -7   5 217.041 11.8003   4
   3  -7  -5 201.166 11.9937   5
  -3  -7   5 212.535 13.4368   2
  -3  -7   5 227.091 10.9741   3
   3  -7  -5 205.904 11.3231   3
   3  -7  -5 214.593 10.8585   6
  -3   7   5 221.318 13.6146   6
   3   7  -5 213.981 12.0589   6
  -3   7   5 210.392 13.8707   4
  -3   7   5 220.742 12.9332   6
   3   7  -5 214.432 13.8866   1
  -3   7   5 214.404 12.5913   6
   3   7  -5 225.699 12.3147   4
   3   7  -5 225.973 10.1410   3
  -1  -7   5 163.569 9.99749   4
   1  -7  -5 167.886 10.8987   3
   1  -7  -5 163.912 11.5386   6
   1  -7  -5 171.840 11.0875   5
   1  -7  -5 179.844 11.5942   6
  -1  -7   5 194.718 13.2017   2
  -1   7   5 184.184 13.6732   4
  -1   7   5 151.951 11.2199   6
   1   7  -5 170.373 8.73768   3
  -1   7   5 176.449 11.7532   6
   1   7  -5 162.230 12.7227   1
  -1   7   5 175.579 12.2137   6
   1   7  -5 180.158 11.1128   6
   1   7  -5 179.812 11.0373   4
  -1  -7  -5 92.2351 10.8149   6
  -1  -7  -5 86.9582 8.49716   5
  -1  -7  -5 95.9398 10.2338   6
   1   7   5 107.477 11.7140   4
  -1   7  -5 95.7866 8.60289   6
  -1   7  -5 86.7946 8.34950   4
   1   7   5 90.4814 9.94336   6
   1   7   5 86.8598 10.1803   6
  -1   7  -5 89.6057 7.09887   3
   3  -7   5 9.39700 4.51094   4
  -3  -7  -5 3.83535 6.10410   6
  -3  -7  -5 7.05521 7.11644   6
   3  -7   5 9.60097 6.22284   2
  -3   7  -5 11.5235 4.54277   6
   3   7   5 7.93249 6.96403   6
  -3   7  -5 18.6928 7.88272   1
  -3   7  -5 14.5190 4.65992   3
   3   7   5 8.71058 6.25299   6
  -3   7  -5 5.67323 5.17600   4
   3   7   5 18.1527 6.89053   4
  -5  -7  -5 33.0545 5.38463   5
   5  -7   5 30.2284 7.87498   2
   5  -7   5 33.4477 5.13828   4
  -5  -7  -5 29.5405 7.99963   6
  -5   7  -5 38.0339 5.12737   6
   5   7   5 33.2572 6.65583   6
  -5   7  -5 30.6421 5.48961   3
   5   7   5 32.9364 7.84277   4
  -5   7  -5 34.0111 8.93171   1
  -7  -7  -5 19.9057 8.34273   6
  -7  -7  -5 28.4301 4.01986   5
   7  -7   5 8.46236 6.73219   2
  -7   7  -5 15.8545 8.04547   1
   7   7   5 15.5407 7.31553   4
  -7   7  -5 26.5451 5.21904   3
  -7   7  -5 20.0153 5.56759   4
  -7   7  -5 28.8456 4.43533   6
   7   7   5 23.8195 5.47824   6
   7   7   5 27.0354 5.21549   6
  -9  -7  -5 13.5646 7.80523   6
   9  -7   5 12.9481 7.76665   2
  -9   7  -5 16.4790 8.75608   1
  -9   7  -5 23.0528 5.62899   4
   9   7   5 30.3250 7.84098   4
  -9   7  -5 20.1629 4.60732   6
 -11  -7  -5 117.595 13.3697   6
  11  -7   5 105.856 19.9697   2
 -11   7  -5 93.6058 9.67107   3
 -11   7  -5 79.8150 8.08078   4
 -11   7  -5 82.1580 11.9295   1
 -18  -8   5 3.99964 7.76111   3
 -18  -8   5 -3.0275 6.25738   6
 -18   8   5 -0.7343 8.48108   4
  18   8  -5 -14.232 4.57707   6
 -18   8   5 4.98447 4.94769   3
  18   8  -5 -6.3787 3.89739   1
  16  -8  -5 3.43431 3.34709   2
  16  -8  -5 -13.002 4.38208   3
 -16  -8   5 -1.3525 5.89244   6
 -16  -8   5 -4.1573 5.81832   3
  16  -8  -5 -6.4929 6.86287   5
 -16   8   5 5.82065 4.75155   6
 -16   8   5 2.45855 4.59560   3
  16   8  -5 -9.8222 4.92133   6
  16   8  -5 -4.0119 4.49360   1
  16   8  -5 12.8416 4.96743   5
 -16   8   5 5.06216 7.59330   4
  16   8  -5 2.28232 5.75158   6
 -14  -8   5 2.09282 6.49501   6
 -14  -8   5 10.6856 5.74626   6
  14  -8  -5 4.75087 4.08829   3
  14  -8  -5 3.40540 8.22441   5
 -14  -8   5 5.28049 6.57141   3
  14  -8  -5 9.16227 3.69421   2
 -14   8   5 6.87603 6.83777   4
  14   8  -5 5.33273 5.31324   1
  14   8  -5 5.65261 5.85211   6
  14   8  -5 3.15046 5.74226   6
 -14   8   5 1.20865 4.79448   6
 -12  -8   5 -0.1525 5.66417   3
  12  -8  -5 3.47218 3.52797   2
  12  -8  -5 -2.8144 3.59553   3
 -12  -8   5 0.35937 5.03340   6
 -12  -8   5 4.47522 6.19209   6
  12  -8  -5 -0.7400 7.25446   5
 -12   8   5 6.33460 5.38314   6
 -12   8   5 -6.0177 5.08123   4
  12   8  -5 0.99320 5.23019   6
  12   8  -5 -4.6023 4.88539   1
  12   8  -5 3.16893 5.96481   6
  10  -8  -5 104.192 12.1676   5
 -10  -8   5 101.315 10.6152   3
  10  -8  -5 91.1640 7.34696   3
 -10  -8   5 95.5413 10.0537   6
 -10  -8   5 90.6317 10.9541   2
  10  -8  -5 93.4800 7.35152   2
  10   8  -5 98.8796 11.0753   6
 -10   8   5 102.901 10.3650   6
 -10   8   5 97.6272 11.7891   4
  10   8  -5 89.0835 10.2252   1
  10   8  -5 91.9473 10.2237   6
  -8  -8   5 192.127 13.7738   2
   8  -8  -5 180.352 9.40194   3
  -8  -8   5 194.063 15.7787   6
   8  -8  -5 175.665 13.6836   2
  -8  -8   5 166.940 10.7145   6
  -8  -8   5 188.414 11.6201   3
   8  -8  -5 199.946 24.0050   5
   8   8  -5 187.740 11.0357   3
  -8   8   5 191.140 13.5044   4
  -8   8   5 192.356 12.7330   6
   8   8  -5 187.370 13.4678   6
   8   8  -5 166.534 13.2690   1
   6  -8  -5 129.484 11.8604   5
  -6  -8   5 135.309 10.2813   3
  -6  -8   5 133.285 11.2398   2
  -6  -8   5 127.487 9.51662   6
  -6  -8   5 138.426 8.51195   6
   6  -8  -5 140.891 7.36564   6
   6  -8  -5 144.342 9.03219   3
   6  -8  -5 143.467 7.18072   6
   6   8  -5 114.922 10.2981   3
  -6   8   5 170.616 18.3230   6
  -6   8   5 171.621 12.9504   4
   6   8  -5 129.220 12.8657   1
   6   8  -5 141.138 12.6046   6
  -4  -8   5 89.5465 10.8683   3
   4  -8  -5 99.5963 10.8276   5
  -4  -8   5 67.0134 8.90108   2
   4  -8  -5 83.0150 8.38630   6
   4  -8  -5 65.1608 7.48313   3
   4  -8  -5 79.5491 8.44693   6
   4   8  -5 86.3410 7.47009   3
   4   8  -5 92.2665 10.1154   6
   4   8  -5 87.9553 9.72632   4
  -4   8   5 88.4122 10.3361   6
   2  -8  -5 131.374 9.77672   6
   2  -8  -5 112.998 10.7255   5
   2  -8  -5 101.748 9.18539   3
  -2  -8   5 123.368 12.0693   2
   2  -8  -5 126.327 10.6428   6
   2   8  -5 129.975 12.6168   1
  -2   8   5 136.155 17.4540   6
   2   8  -5 116.306 10.4446   6
  -2   8   5 115.882 16.5757   6
   2   8  -5 114.048 7.71572   3
  -2   8   5 124.644 12.0674   6
   2   8  -5 129.743 11.0812   4
   0  -8  -5 4.79825 5.68599   6
   0  -8  -5 5.29927 5.82049   5
   0  -8   5 -3.6297 6.03186   2
   0  -8  -5 -3.4515 5.84715   6
   0   8   5 -3.5468 9.70438   4
   0   8  -5 -9.8633 4.47265   6
   0   8  -5 -13.897 6.08520   1
   0   8  -5 4.06570 5.81928   4
   0   8  -5 -4.0944 3.16951   3
   0   8   5 -4.8363 6.08564   6
   2  -8   5 378.499 14.5422   4
  -2  -8  -5 370.840 17.4571   6
   2  -8   5 395.497 18.3912   2
  -2  -8  -5 410.242 17.0129   6
  -2  -8  -5 406.807 14.8573   5
  -2   8  -5 361.736 11.8029   3
  -2   8  -5 415.726 20.8436   1
   2   8   5 387.227 27.3138   4
   2   8   5 392.888 16.8915   6
  -2   8  -5 370.029 15.1088   4
  -2   8  -5 379.242 14.3410   6
   2   8   5 395.161 17.5463   6
   4  -8   5 155.742 12.8033   2
  -4  -8  -5 180.166 16.5615   6
  -4  -8  -5 172.588 13.6518   6
  -4  -8  -5 172.836 14.1103   5
   4  -8   5 132.309 9.56700   4
   4   8   5 150.624 12.3468   6
  -4   8  -5 159.387 8.28225   3
   4   8   5 164.952 13.6510   4
  -4   8  -5 160.899 9.12147   6
   4   8   5 172.142 12.2474   6
  -4   8  -5 176.072 15.2104   1
  -4   8  -5 156.248 10.5815   4
   6  -8   5 36.4675 6.03848   4
  -6  -8  -5 39.0244 5.15698   5
   6  -8   5 36.5507 8.65028   2
  -6  -8  -5 40.1843 9.29523   6
  -6   8  -5 62.4878 6.20830   6
   6   8   5 41.3575 8.85615   4
  -6   8  -5 50.4698 10.6495   1
   6   8   5 39.4928 7.25967   6
  -6   8  -5 43.3782 5.13377   3
   6   8   5 22.4562 6.26688   6
  -6   8  -5 45.5681 6.72809   4
  -8  -8  -5 152.174 13.8988   6
   8  -8   5 116.954 12.3452   2
   8   8   5 135.531 8.65165   6
   8   8   5 125.996 9.42129   6
  -8   8  -5 130.159 9.33071   4
   8   8   5 136.787 13.1265   4
  -8   8  -5 111.421 14.2787   1
  10  -8   5 0.96084 7.59345   2
 -10   8  -5 7.71277 4.75195   4
 -10   8  -5 0.66562 8.04847   1
 -17  -9   5 78.9409 11.6383   3
  17  -9  -5 71.9244 12.3740   5
 -17  -9   5 79.5543 11.1696   6
  17   9  -5 79.2326 9.54368   1
 -17   9   5 75.3915 11.9531   4
  17   9  -5 59.3199 8.56441   6
 -15  -9   5 48.8737 9.82430   6
  15  -9  -5 41.8237 10.9087   5
 -15  -9   5 53.2647 9.54974   3
 -15  -9   5 91.6607 14.7451   6
  15   9  -5 66.3382 8.22976   1
 -15   9   5 63.4612 11.3314   4
  15   9  -5 70.8390 9.63412   6
 -13  -9   5 19.0369 7.41673   6
  13  -9  -5 17.3535 9.41058   5
 -13  -9   5 21.1876 5.81471   6
  13  -9  -5 8.72995 4.05638   3
 -13  -9   5 20.6649 7.47031   3
  13   9  -5 17.7137 6.14587   6
  13   9  -5 23.1282 6.83364   1
 -13   9   5 16.0878 6.16483   6
 -13   9   5 27.4050 9.14240   4
  13   9  -5 2.82877 6.55891   6
  11  -9  -5 36.3284 8.90713   5
  11  -9  -5 41.7720 5.28739   3
 -11  -9   5 68.6323 11.7670   6
 -11  -9   5 43.2766 7.79270   6
  11  -9  -5 46.6359 5.88960   2
 -11  -9   5 47.2839 8.23127   3
  11   9  -5 54.5223 9.07283   6
 -11   9   5 53.6641 10.3270   4
  11   9  -5 45.9974 8.25126   1
 -11   9   5 62.9389 8.81466   6
  11   9  -5 60.2884 9.61585   6
  -9  -9   5 97.7714 10.6942   6
  -9  -9   5 91.9888 9.90921   3
  -9  -9   5 108.604 9.53646   6
   9  -9  -5 88.6608 7.10585   3
  -9  -9   5 103.053 11.2181   2
   9  -9  -5 89.8966 8.00620   2
   9  -9  -5 102.275 12.4584   5
  -9   9   5 75.7991 10.9813   4
  -9   9   5 106.006 11.3549   6
   9   9  -5 94.5628 11.0906   6
   9   9  -5 86.6784 16.2205   1
   7  -9  -5 102.524 8.97013   2
  -7  -9   5 112.165 8.51786   6
   7  -9  -5 98.4656 11.5526   5
   7  -9  -5 102.866 7.67632   3
  -7  -9   5 83.0149 8.70912   3
  -7  -9   5 108.904 8.03108   6
  -7  -9   5 87.9389 10.5913   2
   7   9  -5 101.758 11.6595   6
   7   9  -5 100.562 12.4867   1
  -7   9   5 87.6526 11.8698   4
   7   9  -5 93.0691 8.38910   3
  -7   9   5 102.556 11.2609   6
  -5  -9   5 262.111 15.8620   2
  -5  -9   5 254.176 11.7352   3
   5  -9  -5 229.339 9.69687   6
   5  -9  -5 256.279 9.67794   6
   5   9  -5 242.932 16.8113   1
   5   9  -5 248.570 11.3266   3
   5   9  -5 252.823 14.9784   6
  -5   9   5 240.215 16.2784   4
  -5   9   5 252.499 15.5270   6
   5   9  -5 246.856 17.1644   4
  -3  -9   5 2.17423 5.39264   2
   3  -9  -5 -6.0524 4.73925   6
   3  -9  -5 3.96715 6.49418   5
   3  -9  -5 -4.4740 4.34148   3
   3  -9  -5 1.89515 5.89464   6
  -3   9   5 -5.5985 6.29273   6
  -3   9   5 -2.8737 6.56039   4
   3   9  -5 4.83800 6.65395   1
   3   9  -5 5.94703 6.05424   4
   3   9  -5 -5.0765 5.92792   6
   3   9  -5 -5.1621 3.42210   3
   1  -9  -5 169.847 12.3360   5
  -1  -9   5 160.822 12.8177   2
   1  -9  -5 152.834 11.6493   6
   1  -9  -5 178.901 11.3231   6
   1   9  -5 164.170 12.3578   6
   1   9  -5 162.053 12.4838   4
  -1   9   5 159.173 17.9780   6
   1   9  -5 164.387 7.84848   3
   1   9  -5 170.138 14.4551   1
  -1   9   5 178.752 13.8908   4
  -1  -9  -5 96.7218 10.2295   6
   1  -9   5 51.8263 9.97174   2
  -1  -9  -5 58.8857 8.94141   6
  -1  -9  -5 76.9042 8.88683   5
  -1   9  -5 52.0204 8.45546   4
   1   9   5 62.1950 9.76307   6
   1   9   5 62.6362 9.92026   6
   1   9   5 69.8618 9.96123   6
   1   9   5 51.4426 10.3421   4
  -1   9  -5 61.2222 11.2479   1
  -1   9  -5 60.0804 5.38447   3
  -1   9  -5 69.8170 8.50733   6
   3  -9   5 47.6958 9.86664   2
  -3  -9  -5 78.3268 14.0449   6
  -3  -9  -5 47.1747 7.18179   5
  -3  -9  -5 66.5602 10.3794   6
  -3   9  -5 48.1648 4.68634   3
  -3   9  -5 66.6754 8.45886   4
  -3   9  -5 56.5416 7.36106   6
   3   9   5 62.3638 9.11928   6
   3   9   5 33.0787 8.88129   4
  -3   9  -5 37.6768 10.1603   1
   3   9   5 49.7828 9.24052   6
   5  -9   5 71.6710 10.9527   2
  -5  -9  -5 62.3216 10.0359   6
  -5   9  -5 77.0681 11.8433   1
   5   9   5 75.3289 9.76739   6
  -5   9  -5 101.728 9.46222   4
  -5   9  -5 88.1412 8.99090   6
   5   9   5 74.4723 9.18344   6
   5   9   5 66.8860 10.3827   4
  -7  -9  -5 7.32053 6.54398   3
  -7  -9  -5 8.22187 8.32805   6
   7   9   5 8.51464 7.31617   4
  -7   9  -5 16.6088 5.41183   4
  -7   9  -5 6.69084 8.21143   1
   7   9   5 10.8256 7.42537   6
  -7   9  -5 15.1104 3.79326   3
  14 -10  -5 20.0643 4.94114   2
  14 -10  -5 30.5742 9.12780   5
 -14 -10   5 19.9255 7.30985   3
 -14  10   5 17.7514 8.50594   4
  14  10  -5 15.2568 6.62113   1
  12 -10  -5 52.8519 12.1042   5
  12 -10  -5 53.0874 6.57737   2
 -12 -10   5 42.2956 8.28921   6
  12  10  -5 51.9340 8.98737   1
 -12  10   5 63.4755 9.25400   6
  12  10  -5 46.2212 9.65537   6
 -12  10   5 46.3621 11.0583   4
 -10 -10   5 69.4079 8.88911   3
 -10 -10   5 61.8341 8.63774   6
 -10 -10   5 78.3333 11.7989   2
  10 -10  -5 87.8449 8.56273   2
  10 -10  -5 50.7275 5.86765   3
  10 -10  -5 94.8757 13.2587   5
 -10  10   5 75.9694 12.7902   4
 -10  10   5 81.4532 10.6669   6
  10  10  -5 65.3481 10.3869   1
  10  10  -5 67.3005 9.81497   6
  -8 -10   5 68.7921 10.6444   2
  -8 -10   5 73.5213 7.73583   6
  -8 -10   5 66.7094 8.14092   3
   8 -10  -5 49.6282 5.61488   3
   8 -10  -5 77.3694 8.59889   2
   8 -10  -5 63.0992 10.8682   5
  -8 -10   5 76.4564 8.37439   6
  -8  10   5 62.4286 11.8565   4
   8  10  -5 64.9915 10.4657   1
   8  10  -5 75.1785 14.6307   6
  -8  10   5 71.7205 10.3835   6
   6 -10  -5 5.27643 4.16941   3
   6 -10  -5 1.07818 6.96907   5
   6 -10  -5 -5.3925 4.75382   2
  -6 -10   5 -2.0999 4.51623   3
  -6 -10   5 -5.1963 6.51290   2
  -6  10   5 -1.2533 7.57153   4
   6  10  -5 -4.8740 6.14036   4
   6  10  -5 0.82273 6.06655   6
  -6  10   5 12.5734 6.87619   6
   6  10  -5 -4.3256 6.19004   1
   6  10  -5 -6.9046 3.72016   3
   4 -10  -5 45.8299 9.51752   5
  -4 -10   5 53.8319 9.90530   2
   4 -10  -5 43.6153 5.85790   6
   4 -10  -5 24.4914 5.54514   3
   4 -10  -5 48.3190 5.77094   6
  -4  10   5 41.4028 9.56430   6
   4  10  -5 46.2069 8.52209   4
   4  10  -5 42.0559 5.04010   3
   4  10  -5 50.9738 10.6367   1
   4  10  -5 52.6816 9.43066   6
  -4  10   5 33.4787 10.2478   4
   2 -10  -5 286.823 17.9417   6
  -2 -10   5 283.640 16.8845   2
   2 -10  -5 238.950 12.5135   6
   2  10  -5 228.425 15.1747   4
   2  10  -5 254.797 18.4076   1
   2  10  -5 272.905 15.4603   6
  -2  10   5 267.942 17.8221   4
   2  10  -5 254.464 9.18916   3
  -2  10   5 256.085 17.9702   6
   0 -10  -5 235.607 12.4278   6
   0 -10   5 239.590 16.4409   2
   0 -10  -5 216.072 13.9521   6
   0 -10  -5 229.773 13.1837   5
   0  10  -5 238.645 13.7696   6
   0  10  -5 241.043 22.0221   4
   0  10   5 234.117 15.9475   6
   0  10   5 246.037 17.4058   4
   0  10  -5 244.331 18.4858   1
  -2 -10  -5 21.4392 5.74565   5
  -2 -10  -5 13.9858 7.46098   6
   2 -10   5 21.4666 8.25278   2
   2  10   5 4.97582 7.43581   6
   2  10   5 4.39551 7.76120   4
   2  10   5 10.1158 7.60660   6
  -2  10  -5 19.6164 6.14108   6
  -2  10  -5 9.82326 8.36988   1
  -2  10  -5 14.8925 7.07062   4
  -4 -10  -5 5.92440 6.97970   6
  -4 -10  -5 15.3535 5.39198   5
  -4  10  -5 6.11802 5.82529   4
   4  10   5 3.93236 8.43726   6
   4  10   5 -6.6251 7.27250   4
  11  11  -5 16.0423 7.50356   1
  -9 -11   5 -3.6367 6.86331   2
  -9 -11   5 1.03334 5.04946   3
   9 -11  -5 22.1668 5.70185   2
   9 -11  -5 14.6891 8.71886   5
  -9 -11   5 2.53720 4.69397   6
  -9  11   5 6.96466 8.25662   4
   9  11  -5 -4.7448 6.85092   1
   9  11  -5 17.1307 7.57302   6
  -9  11   5 2.19653 6.89021   6
  -7 -11   5 -3.1361 4.66032   3
  -7 -11   5 10.7711 3.27073   6
   7 -11  -5 3.99024 5.57663   2
   7 -11  -5 11.0991 7.77552   5
   7  11  -5 4.65876 6.79168   6
   7  11  -5 13.9397 8.20412   1
  -7  11   5 11.7572 7.83194   6
   5 -11  -5 27.0791 8.46657   5
  -5 -11   5 14.5057 10.9636   2
  -5  11   5 38.9142 13.0204   4
  -5  11   5 24.8639 8.34961   6
   5  11  -5 20.5360 7.56573   6
   5  11  -5 29.6145 9.73987   1
   5  11  -5 18.9621 8.21763   4
   3 -11  -5 14.1346 4.65728   6
   3 -11  -5 8.91598 5.78195   6
  -3 -11   5 9.86664 11.1807   2
   3 -11  -5 17.2963 7.06542   5
  -3  11   5 13.1940 8.12059   4
  -3  11   5 0.93924 6.09975   6
   3  11  -5 4.35424 7.57480   1
   3  11  -5 10.0859 6.65119   4
   3  11  -5 -1.8074 6.33523   6
   1 -11  -5 18.4890 7.00847   5
   1 -11  -5 14.5077 11.1519   6
  -1 -11   5 26.0742 11.4199   2
  -1  11   5 11.2580 9.49644   4
   1  11  -5 18.8877 7.26516   4
  -1  11   5 19.5155 8.63839   6
  -1 -11  -5 18.3685 6.18317   5
  -1 -11  -5 4.52689 6.80088   6
   1 -11   5 16.3941 8.94103   2
  -1 -11  -5 16.8455 6.16419   3
  -1  11  -5 4.24591 9.05980   1
  -1  11  -5 10.0432 6.27234   4
   1  11   5 8.69271 7.35387   6
 -24   0   6 -4.1103 7.44551   3
  24   0  -6 8.40327 6.00063   5
  22   0  -6 40.4006 8.03595   5
 -22   0   6 40.7266 5.32620   2
 -22   0   6 43.7497 4.55948   1
 -22   0   6 51.6444 10.6470   3
 -20   0   6 28.3923 8.02877   3
 -20   0   6 39.0219 5.23385   1
 -20   0   6 36.9713 7.29900   6
  20   0  -6 48.6268 8.28649   5
 -20   0   6 43.7192 5.45870   2
 -18   0   6 4.21418 3.93948   1
  18   0  -6 9.42903 6.23363   5
 -18   0   6 11.6000 5.25347   6
 -16   0   6 385.699 14.2524   1
 -16   0   6 403.046 17.7214   3
  16   0  -6 408.284 16.5322   5
 -16   0   6 408.603 14.9942   6
 -14   0   6 923.211 23.7525   1
 -14   0   6 940.568 23.8104   6
 -14   0   6 954.001 27.1039   3
 -12   0   6 1021.43 25.1183   6
 -12   0   6 1075.30 27.9385   3
 -12   0   6 997.196 25.5073   1
  12   0  -6 1022.65 28.8649   1
  12   0  -6 1022.38 22.0641   6
 -12   0   6 979.907 24.7378   6
  12   0  -6 1025.86 22.0329   6
 -12   0   6 992.747 19.9041   2
 -10   0   6 391.908 13.9876   6
 -10   0   6 371.354 13.5500   6
  10   0  -6 407.890 13.0116   6
  10   0  -6 392.326 14.7535   3
 -10   0   6 399.665 9.96189   2
 -10   0   6 389.774 14.6020   1
 -10   0   6 413.184 15.7105   3
  10   0  -6 401.156 12.4670   6
  10   0  -6 432.914 15.9686   1
   8   0  -6 1420.24 30.1094   6
  -8   0   6 1377.09 30.2575   6
  -8   0   6 1417.27 30.5255   6
   8   0  -6 1377.43 32.7727   1
   8   0  -6 1406.71 34.3875   6
   8   0  -6 1346.12 31.9055   3
  -8   0   6 1358.07 32.5681   1
  -8   0   6 1366.83 26.6245   2
  -8   0   6 1422.97 33.0453   3
   6   0  -6 4844.31 89.2666   3
  -6   0   6 5003.41 89.9247   3
   6   0  -6 4904.75 86.8351   6
  -6   0   6 4757.24 84.2191   2
   6   0  -6 4955.25 87.1574   6
   6   0  -6 4784.95 83.9985   2
  -6   0   6 5065.69 87.1091   6
   6   0  -6 4994.79 90.6765   1
   4   0  -6 2786.78 54.8548   3
   4   0  -6 2774.44 52.3699   6
  -4   0   6 2864.73 51.5562   6
  -4   0   6 2757.24 50.8593   2
  -4   0   6 2697.22 50.8950   6
  -4   0   6 2643.23 54.7595   1
   4   0  -6 2786.57 52.5047   6
   4   0  -6 2711.21 50.5518   2
  -4   0   6 2673.24 49.2860   4
   4   0  -6 2731.50 55.4370   1
   2   0  -6 2751.95 54.9928   1
   2   0  -6 2652.25 50.6673   2
  -2   0   6 2571.18 53.7868   1
   2   0  -6 2881.76 56.7126   6
  -2   0   6 2650.48 50.7340   2
  -2   0   6 2665.61 48.5739   6
   2   0  -6 2560.65 52.9093   3
   2   0  -6 2585.94 50.6581   6
  -2   0   6 2642.66 46.5621   4
   0   0   6 219.128 12.3617   1
   0   0   6 229.240 6.78362   6
   0   0  -6 220.555 12.1255   3
   0   0  -6 223.003 10.4357   6
   0   0  -6 239.252 11.4856   2
   0   0  -6 225.842 13.1917   1
   0   0   6 223.910 11.0744   2
   0   0   6 223.345 6.83155   6
   0   0  -6 213.362 10.4262   6
   2   0   6 1031.43 28.2809   1
  -2   0  -6 1054.48 27.5331   2
  -2   0  -6 1107.50 29.5029   1
  -4   0  -6 1134.02 30.4659   1
  -4   0  -6 1097.91 25.5896   6
  -6   0  -6 1159.67 32.0609   1
  -6   0  -6 1176.50 27.0956   6
  -8   0  -6 1062.18 25.5099   6
  -8   0  -6 1093.74 30.7193   1
 -10   0  -6 294.668 16.3842   1
 -10   0  -6 298.540 12.3287   6
 -12   0  -6 1.25362 6.46134   1
  23  -1  -6 -4.6260 5.83008   5
 -23  -1   6 8.54614 7.85369   3
 -23  -1   6 9.03836 5.43795   6
 -23   1   6 2.35463 6.56254   3
 -23   1   6 7.08053 4.81464   6
  23   1  -6 3.24959 5.61762   5
 -21  -1   6 22.0712 8.62241   3
 -21  -1   6 20.9789 6.13839   6
 -21  -1   6 14.6434 3.96916   1
 -21   1   6 24.3666 4.30758   2
 -21   1   6 15.1892 7.10811   3
 -21   1   6 22.0931 5.49077   6
 -21   1   6 14.3084 4.56123   1
  21   1  -6 23.8212 6.83046   5
  19  -1  -6 7.59296 6.41076   5
 -19  -1   6 9.50044 6.55677   3
 -19  -1   6 4.54483 3.39071   1
 -19  -1   6 4.39728 5.63032   6
 -19   1   6 6.04245 3.06273   2
  19   1  -6 -1.9593 5.76378   5
 -19   1   6 5.87076 4.76593   6
 -19   1   6 -3.9639 3.98914   1
 -19   1   6 6.59405 6.33061   3
 -17  -1   6 654.322 18.1072   1
 -17  -1   6 675.164 24.2417   3
  17  -1  -6 693.855 22.3173   5
 -17  -1   6 652.591 20.2845   6
 -17   1   6 646.881 19.4852   1
  17   1  -6 698.386 21.7015   5
 -17   1   6 673.948 23.7003   3
  15  -1  -6 496.833 18.3427   5
 -15  -1   6 481.350 15.6086   1
 -15  -1   6 488.512 19.1525   3
 -15  -1   6 471.276 16.4657   6
  15   1  -6 498.614 16.1966   1
 -15   1   6 471.202 16.6478   1
 -15   1   6 520.063 19.7065   3
 -15   1   6 496.436 16.0843   6
 -15   1   6 475.405 10.3480   2
  13  -1  -6 177.237 11.0104   5
 -13  -1   6 178.700 12.3973   3
 -13  -1   6 179.243 10.5345   6
  13  -1  -6 160.048 10.6131   1
 -13  -1   6 162.725 9.81106   6
 -13  -1   6 169.585 9.94113   1
 -13   1   6 164.513 11.0492   1
  13   1  -6 181.021 8.35864   6
  13   1  -6 178.109 10.7475   1
 -13   1   6 175.586 10.0614   6
 -13   1   6 165.229 12.0873   3
 -11  -1   6 551.047 17.2793   1
  11  -1  -6 565.635 18.7453   1
  11  -1  -6 556.672 14.5256   6
  11  -1  -6 567.034 17.7405   6
 -11  -1   6 551.729 17.0933   6
 -11  -1   6 564.058 17.9280   6
 -11  -1   6 524.643 13.7792   2
 -11  -1   6 595.064 19.3606   3
  11  -1  -6 559.734 18.2577   3
  11   1  -6 552.491 19.0788   3
 -11   1   6 537.937 16.6192   6
 -11   1   6 533.515 16.2552   6
  11   1  -6 548.012 15.4190   6
  11   1  -6 556.660 15.8683   6
 -11   1   6 575.183 19.0702   3
  -9  -1   6 108.868 8.33093   6
   9  -1  -6 117.060 7.89021   6
  -9  -1   6 104.919 6.32851   2
   9  -1  -6 113.830 9.25377   3
  -9  -1   6 127.732 8.96633   6
  -9  -1   6 103.458 9.00094   3
   9  -1  -6 107.338 9.71353   1
   9  -1  -6 107.988 7.28602   6
  -9  -1   6 114.141 8.33625   1
   9  -1  -6 108.636 7.93133   6
   9   1  -6 102.068 9.39893   6
   9   1  -6 106.358 8.70972   3
  -9   1   6 110.984 4.26262   2
   9   1  -6 103.435 8.17256   6
  -9   1   6 112.286 8.38469   6
   9   1  -6 113.160 9.67343   1
  -9   1   6 97.1673 9.29548   3
  -9   1   6 106.959 8.32141   6
  -7  -1   6 192.589 9.81120   6
   7  -1  -6 202.670 6.94110   2
  -7  -1   6 192.435 8.41179   2
   7  -1  -6 194.939 9.76546   6
  -7  -1   6 207.804 11.2892   6
  -7  -1   6 202.501 11.0388   3
   7  -1  -6 189.181 10.4102   3
   7  -1  -6 207.808 11.6507   1
  -7   1   6 191.923 11.9365   1
  -7   1   6 179.386 9.58684   6
   7   1  -6 192.987 10.6139   3
   7   1  -6 182.506 10.5383   6
  -7   1   6 201.403 10.0996   6
   7   1  -6 216.337 12.0833   1
   7   1  -6 191.808 9.78854   6
  -7   1   6 194.153 6.77250   2
  -7   1   6 208.426 9.67688   4
  -7   1   6 207.541 11.7486   3
   5  -1  -6 842.796 24.0117   1
  -5  -1   6 799.990 22.4393   3
   5  -1  -6 801.815 20.5047   6
   5  -1  -6 797.310 22.1209   3
   5  -1  -6 783.944 17.8938   2
  -5  -1   6 781.426 19.4909   6
  -5  -1   6 798.720 19.6977   6
  -5  -1   6 807.960 19.4930   2
  -5  -1   6 782.997 22.3632   1
   5  -1  -6 789.580 20.4296   6
   5   1  -6 778.245 20.3812   6
   5   1  -6 794.802 19.3894   2
  -5   1   6 770.031 22.6469   1
   5   1  -6 773.185 22.0609   3
   5   1  -6 820.006 23.2596   1
  -5   1   6 808.453 20.3405   6
  -5   1   6 809.981 21.2483   6
  -5   1   6 785.892 19.1760   4
   5   1  -6 768.115 20.4093   6
   3  -1  -6 754.910 22.8896   1
  -3  -1   6 745.261 17.6831   6
   3  -1  -6 761.305 18.4741   2
  -3  -1   6 752.900 19.5343   2
   3  -1  -6 720.190 21.2044   3
   3  -1  -6 744.130 20.0677   6
  -3  -1   6 768.325 22.3675   1
   3  -1  -6 737.490 19.6745   6
   3   1  -6 754.063 22.2628   1
  -3   1   6 767.790 19.0314   6
  -3   1   6 742.841 18.7297   6
   3   1  -6 730.743 19.5181   6
   3   1  -6 756.473 19.2926   2
  -3   1   6 759.947 17.3636   4
   3   1  -6 721.844 19.4799   6
   3   1  -6 762.172 21.3594   3
  -3   1   6 697.314 21.3814   1
  -1  -1   6 1756.98 31.3644   6
  -1  -1   6 1759.87 37.3612   2
  -1  -1   6 1802.32 40.1398   1
   1  -1  -6 1767.57 36.9127   6
   1  -1  -6 1773.62 36.6539   2
   1  -1  -6 1730.17 39.1503   3
   1  -1  -6 1837.36 40.6569   1
  -1  -1   6 1721.37 31.2704   6
   1  -1  -6 1894.58 38.7376   6
   1   1  -6 1746.06 38.8242   3
   1   1  -6 1803.32 40.6742   1
   1   1  -6 1724.74 35.8521   6
  -1   1   6 1711.16 39.3873   1
  -1   1   6 1782.31 32.8947   4
  -1   1   6 1815.69 34.6752   6
  -1   1   6 1760.22 34.5215   6
   1   1  -6 1726.27 35.8053   6
  -1  -1  -6 101.873 8.64440   2
  -1  -1  -6 106.571 8.21647   6
  -1  -1  -6 102.994 9.95166   1
   1  -1   6 100.216 9.98429   1
   1  -1   6 91.3164 8.88632   2
  -1  -1  -6 109.471 8.91813   6
   1   1   6 110.763 5.31576   6
  -1   1  -6 88.0244 8.60870   3
   1   1   6 108.395 5.40635   6
  -1   1  -6 97.4447 8.10112   6
   1   1   6 109.188 5.21526   4
  -1   1  -6 100.939 8.81311   2
   1   1   6 104.905 9.63975   1
  -1   1  -6 120.268 10.9900   1
  -3  -1  -6 2.12410 4.77453   6
  -3  -1  -6 -2.0338 4.99768   1
   3  -1   6 -4.4965 5.42966   2
  -3   1  -6 2.60803 4.33515   6
  -3   1  -6 -0.3530 5.86771   1
   3   1   6 4.17162 5.74133   1
   5  -1   6 1045.48 29.3047   2
  -5  -1  -6 1061.75 29.5731   1
  -5  -1  -6 1004.32 28.7912   6
  -5   1  -6 1055.63 29.6698   1
  -5   1  -6 1012.81 23.6990   6
  -7  -1  -6 38.4142 8.14637   1
  -7  -1  -6 38.9102 6.62720   6
  -7   1  -6 35.0830 7.97986   1
  -7   1  -6 42.6476 5.71301   6
  -9  -1  -6 80.4911 8.62434   6
  -9  -1  -6 77.1440 7.69160   5
  -9  -1  -6 79.4592 10.1530   1
  -9   1  -6 102.242 11.3652   1
  -9   1  -6 97.3652 11.8872   6
 -11  -1  -6 3.27406 6.26119   1
 -11  -1  -6 7.29827 4.38619   5
 -11  -1  -6 12.3711 5.52316   6
 -11   1  -6 7.84591 4.18605   6
 -11   1  -6 -0.0455 6.04250   1
 -13  -1  -6 10.6389 6.51742   1
 -13   1  -6 -5.1891 10.0391   1
 -24  -2   6 14.5212 8.04387   3
  24  -2  -6 2.28003 6.43989   5
 -24  -2   6 -2.4388 9.63301   6
  24   2  -6 9.77463 5.40454   5
 -24   2   6 0.99266 7.84912   4
 -24   2   6 1.61460 7.08339   3
 -22  -2   6 5.57342 6.37784   3
  22  -2  -6 -4.5351 5.96088   5
 -22  -2   6 3.11451 5.53653   6
 -22   2   6 10.9691 3.49945   2
 -22   2   6 0.98796 6.85103   3
  22   2  -6 9.51715 5.52011   5
 -22   2   6 12.2730 4.71699   6
 -22   2   6 8.21921 6.91616   4
 -20  -2   6 7.08241 7.09287   3
 -20  -2   6 15.2449 3.18376   1
  20  -2  -6 -2.3384 6.18296   5
 -20  -2   6 5.46277 5.45569   6
 -20   2   6 7.12557 4.85650   6
 -20   2   6 3.11313 2.66999   2
  20   2  -6 14.3794 6.36199   5
 -20   2   6 4.38783 7.28890   3
  18  -2  -6 26.5100 7.85350   5
 -18  -2   6 14.6251 7.07145   3
 -18  -2   6 26.9534 4.44555   1
 -18  -2   6 29.3164 7.23191   6
 -18   2   6 21.2303 5.89388   1
 -18   2   6 25.5137 2.87502   2
 -18   2   6 19.4788 7.03467   3
  18   2  -6 26.7053 7.24251   5
 -18   2   6 24.5235 5.56499   6
 -16  -2   6 16.2155 4.51928   1
 -16  -2   6 16.8344 6.31026   6
 -16  -2   6 12.3367 6.87362   3
  16  -2  -6 19.1622 6.72467   5
 -16   2   6 18.2694 5.73266   1
  16   2  -6 19.2595 5.30338   1
 -16   2   6 19.2639 5.62234   6
 -16   2   6 17.3514 7.10638   3
 -14  -2   6 57.5412 6.60561   1
  14  -2  -6 61.8828 9.46787   5
 -14  -2   6 65.2920 9.54297   3
 -14  -2   6 61.4206 7.84057   6
  14   2  -6 69.2181 6.86223   6
 -14   2   6 64.0543 8.54760   4
  14   2  -6 57.9601 6.94197   1
 -14   2   6 65.8181 7.86075   1
 -14   2   6 54.6182 8.43440   3
  14   2  -6 66.2685 8.40811   6
 -14   2   6 59.3152 7.20278   6
 -12  -2   6 88.2009 7.03348   2
 -12  -2   6 95.3275 7.97659   1
  12  -2  -6 81.4978 8.91084   5
 -12  -2   6 75.4594 8.52807   6
 -12  -2   6 101.808 10.3772   3
  12  -2  -6 84.1094 8.83181   3
 -12  -2   6 88.0745 8.19147   6
 -12   2   6 80.3194 8.74512   1
  12   2  -6 83.1832 7.35702   6
 -12   2   6 86.7474 8.04265   6
  12   2  -6 89.4559 7.83128   6
 -12   2   6 91.6245 8.66271   4
 -12   2   6 83.9934 9.65603   3
  10  -2  -6 0.15722 4.47878   3
  10  -2  -6 0.56027 3.40345   6
  10  -2  -6 0.28631 4.66514   1
  10  -2  -6 1.55147 5.34931   5
  10  -2  -6 -1.1664 3.72654   6
 -10  -2   6 5.15534 3.81643   2
 -10  -2   6 -2.2569 4.71845   3
 -10  -2   6 3.29953 4.34336   6
 -10  -2   6 6.30789 4.49184   1
  10   2  -6 2.58522 4.39162   3
 -10   2   6 -2.0401 3.97272   1
  10   2  -6 11.0699 5.20137   1
 -10   2   6 5.09347 4.71202   3
  10   2  -6 6.47953 4.53692   6
 -10   2   6 2.16555 4.33213   6
 -10   2   6 -2.6127 4.10685   6
 -10   2   6 3.43634 4.79072   4
  -8  -2   6 -2.0490 3.86938   6
   8  -2  -6 4.23864 4.46856   6
   8  -2  -6 3.08599 3.69566   6
   8  -2  -6 -0.9576 4.75591   3
   8  -2  -6 3.51702 1.68284   2
  -8  -2   6 2.39924 5.22782   3
  -8  -2   6 1.72465 3.99802   6
   8  -2  -6 1.85751 5.02968   1
   8  -2  -6 2.17568 4.13871   6
  -8  -2   6 3.71086 3.67338   2
  -8   2   6 7.83159 5.03061   1
   8   2  -6 4.58981 4.21379   6
  -8   2   6 4.64663 4.41503   4
  -8   2   6 8.92975 4.65084   6
  -8   2   6 1.74026 4.32435   6
  -8   2   6 5.36096 5.15072   3
   8   2  -6 2.26028 4.73944   1
   8   2  -6 5.57372 4.18037   3
   8   2  -6 1.32035 4.47246   6
   6  -2  -6 724.593 19.2744   6
   6  -2  -6 732.905 19.2610   6
  -6  -2   6 721.153 20.8204   3
  -6  -2   6 722.967 18.5871   6
   6  -2  -6 746.659 19.5902   6
   6  -2  -6 733.443 22.1770   1
  -6  -2   6 713.555 18.5691   6
  -6  -2   6 728.083 18.5402   2
  -6  -2   6 711.912 21.2918   1
   6  -2  -6 712.923 20.8029   3
  -6   2   6 726.415 19.2118   4
  -6   2   6 730.885 21.1557   3
   6   2  -6 725.200 19.4218   6
  -6   2   6 724.923 19.6854   6
   6   2  -6 729.017 20.8441   3
   6   2  -6 746.259 19.7426   6
   6   2  -6 715.296 21.9153   1
  -6   2   6 672.803 21.1938   1
  -6   2   6 719.112 19.3300   6
   4  -2  -6 444.306 12.5118   2
   4  -2  -6 444.777 16.3401   6
  -4  -2   6 411.035 19.6329   2
   4  -2  -6 429.269 16.7380   1
  -4  -2   6 445.930 12.9257   6
  -4  -2   6 440.485 16.2181   3
   4  -2  -6 438.043 14.4394   6
   4  -2  -6 449.048 16.0613   3
  -4  -2   6 414.354 16.1178   1
   4   2  -6 431.906 13.9748   2
   4   2  -6 402.488 15.3953   6
  -4   2   6 426.634 13.4192   4
  -4   2   6 442.712 14.4203   6
   4   2  -6 419.274 14.3209   6
  -4   2   6 425.705 16.3541   1
  -4   2   6 445.431 14.3579   6
   4   2  -6 438.233 15.9043   3
   4   2  -6 456.466 16.8010   1
   2  -2  -6 328.324 13.1937   6
   2  -2  -6 307.919 12.6959   6
  -2  -2   6 321.495 8.64365   6
  -2  -2   6 321.247 8.62490   4
  -2  -2   6 319.804 8.76501   6
  -2  -2   6 314.892 12.4368   2
   2  -2  -6 306.483 13.7487   3
  -2  -2   6 314.234 14.1181   1
   2  -2  -6 308.407 15.0142   1
   2  -2  -6 318.772 11.3741   2
   2   2  -6 332.142 13.6591   3
   2   2  -6 325.041 12.1672   6
   2   2  -6 332.895 15.2530   1
  -2   2   6 316.109 14.0371   1
   2   2  -6 334.306 12.1653   6
  -2   2   6 323.129 11.7372   6
  -2   2   6 331.944 12.2146   6
  -2   2   6 320.745 11.0062   4
   2   2  -6 327.894 14.8074   2
   0  -2   6 10.9547 9.29239   1
   0  -2  -6 14.3441 5.28559   6
   0  -2  -6 10.5558 5.17952   6
   0  -2   6 5.36026 5.18465   2
   0  -2  -6 15.5845 6.41356   1
   0  -2  -6 11.6910 3.37550   4
   0   2  -6 3.09596 5.28315   1
   0   2   6 8.47427 5.19112   1
   0   2  -6 10.2413 5.08827   2
   0   2   6 12.1444 3.68352   4
   0   2  -6 14.2319 5.56731   3
   0   2   6 10.1721 3.72903   6
   0   2  -6 12.1123 4.42670   6
   0   2   6 13.1507 4.22401   6
  -2  -2  -6 95.5401 9.31543   6
   2  -2   6 99.7565 9.82442   2
  -2  -2  -6 90.1265 10.8377   1
  -2  -2  -6 103.161 8.99491   2
  -2  -2  -6 86.9913 5.97904   4
  -2   2  -6 99.1726 10.7954   3
   2   2   6 104.376 10.7947   1
   2   2   6 91.7324 5.64465   6
   2   2   6 95.5472 5.51825   6
  -2   2  -6 97.9783 7.36970   6
  -2   2  -6 99.1761 10.1823   1
   2   2   6 91.5604 5.91405   4
  -4  -2  -6 -7.3284 5.89003   1
  -4  -2  -6 9.15366 5.54223   6
   4  -2   6 -0.8803 4.83680   2
  -4  -2  -6 1.05911 2.99723   4
  -4   2  -6 -0.7157 3.69016   6
  -4   2  -6 2.13146 5.58883   1
  -6  -2  -6 45.7221 7.22878   6
  -6  -2  -6 38.9863 4.48426   4
  -6  -2  -6 35.0912 8.11138   1
  -6   2  -6 46.7554 8.95706   1
  -6   2  -6 42.3571 6.97397   6
  -8  -2  -6 47.5499 8.63382   1
  -8  -2  -6 41.7763 7.72561   6
  -8  -2  -6 47.4259 5.31049   4
  -8   2  -6 44.1183 8.74833   1
  -8   2  -6 55.9979 6.10640   6
 -10  -2  -6 4.85822 6.26836   1
 -10  -2  -6 9.16354 3.36292   4
 -10   2  -6 -1.7340 5.43180   1
 -10   2  -6 0.22625 3.57940   6
 -12  -2  -6 10.6297 6.08339   1
 -12  -2  -6 5.40995 5.69197   6
 -12  -2  -6 4.00467 6.09742   6
 -12   2  -6 9.59398 6.70277   1
 -23  -3   6 45.2797 9.55929   6
  23  -3  -6 18.1320 7.89751   5
 -23   3   6 25.8563 9.87001   4
 -23   3   6 22.1366 8.06796   3
  23   3  -6 36.8652 6.91886   5
 -21  -3   6 -3.3286 6.34058   3
 -21  -3   6 -0.4748 5.77494   6
  21  -3  -6 4.07374 6.82483   5
 -21   3   6 -3.6665 6.42122   3
  21   3  -6 -6.6285 4.76622   5
 -21   3   6 2.84102 4.00184   6
 -21   3   6 8.78135 6.80108   4
 -19  -3   6 15.4231 3.71752   1
  19  -3  -6 19.4449 7.28623   5
 -19  -3   6 36.3567 8.87653   3
 -19  -3   6 23.9309 7.15876   6
 -19   3   6 22.7872 5.45806   6
  19   3  -6 26.6029 6.96723   5
 -19   3   6 27.9410 7.48083   4
  17  -3  -6 14.9437 7.32098   5
 -17  -3   6 18.1861 7.56456   3
 -17  -3   6 9.43974 6.77910   6
 -17  -3   6 19.5865 4.37934   1
 -17   3   6 10.0310 6.41719   1
 -17   3   6 20.8152 6.78154   4
  17   3  -6 26.4254 5.22312   1
 -17   3   6 34.2536 6.00735   6
  17   3  -6 20.5860 3.45562   6
 -17   3   6 29.4101 7.60985   3
 -15  -3   6 46.5392 9.20078   3
 -15  -3   6 36.8800 5.75910   1
  15  -3  -6 45.2431 8.94193   5
 -15   3   6 34.9247 6.96892   1
  15   3  -6 46.0862 6.44292   1
 -15   3   6 43.7183 7.37830   4
  15   3  -6 48.1847 6.36158   6
 -15   3   6 42.7566 7.92578   3
  15   3  -6 66.5224 7.96563   6
 -15   3   6 58.2712 7.13936   6
 -13  -3   6 33.2640 5.69639   1
 -13  -3   6 37.9059 7.21459   6
 -13  -3   6 32.6905 7.08975   3
  13  -3  -6 42.5234 8.47566   5
 -13  -3   6 32.3254 6.46711   6
  13   3  -6 41.9599 6.50357   6
 -13   3   6 34.2579 6.09665   6
  13   3  -6 41.2668 6.08961   6
 -13   3   6 32.3884 6.79638   1
 -13   3   6 26.2767 6.40694   4
 -13   3   6 34.9854 7.27437   3
 -11  -3   6 31.1780 6.24059   6
  11  -3  -6 35.5009 6.37356   3
 -11  -3   6 35.0411 6.60579   2
  11  -3  -6 35.8531 6.90255   5
 -11  -3   6 43.2692 8.24948   3
  11  -3  -6 39.0945 3.67374   6
 -11  -3   6 24.2312 5.56400   6
  11  -3  -6 36.6264 4.13315   6
 -11  -3   6 37.3366 6.05207   1
  11   3  -6 35.3827 6.39347   1
 -11   3   6 36.9972 7.02324   4
 -11   3   6 37.7982 6.44994   6
 -11   3   6 32.2660 7.10270   1
 -11   3   6 43.3134 7.32432   3
  11   3  -6 32.1292 6.19480   6
  -9  -3   6 190.296 11.0578   1
   9  -3  -6 192.060 8.40149   6
   9  -3  -6 167.007 10.7416   5
  -9  -3   6 194.613 11.8250   3
  -9  -3   6 196.543 10.6148   6
  -9  -3   6 184.951 10.3165   6
   9  -3  -6 192.176 8.97133   6
   9  -3  -6 185.390 10.8040   3
   9   3  -6 187.047 11.2589   3
  -9   3   6 195.504 10.8988   4
   9   3  -6 198.595 11.0688   6
   9   3  -6 188.110 10.1492   6
  -9   3   6 176.114 10.3456   6
  -9   3   6 195.409 10.5209   6
  -9   3   6 200.233 10.9947   3
   9   3  -6 201.266 11.6414   1
  -9   3   6 178.064 11.2880   1
  -7  -3   6 721.737 19.0604   6
  -7  -3   6 745.732 19.5048   6
  -7  -3   6 744.416 21.6347   3
  -7  -3   6 696.438 18.9510   4
   7  -3  -6 744.994 21.1327   3
   7  -3  -6 745.482 22.7092   1
   7  -3  -6 728.378 18.7267   6
   7  -3  -6 718.768 18.9635   6
   7  -3  -6 731.187 14.8220   2
  -7  -3   6 741.705 22.0682   2
  -7  -3   6 704.656 21.6690   1
  -7   3   6 718.279 20.3587   6
  -7   3   6 725.266 20.4704   4
  -7   3   6 681.438 21.8729   1
  -7   3   6 745.956 21.4373   3
   7   3  -6 748.063 22.3497   1
   7   3  -6 725.486 20.1056   6
  -7   3   6 726.527 20.1117   6
   7   3  -6 711.665 19.5392   6
   7   3  -6 722.385 20.9062   3
  -5  -3   6 677.486 21.0731   1
   5  -3  -6 643.531 19.4798   3
   5  -3  -6 658.072 21.5345   1
   5  -3  -6 685.395 18.8219   6
  -5  -3   6 659.356 16.9743   6
  -5  -3   6 679.668 20.2580   3
  -5  -3   6 697.643 19.2331   2
  -5  -3   6 661.371 17.0086   4
   5  -3  -6 662.696 15.6778   2
   5  -3  -6 641.313 18.3162   6
  -5   3   6 664.367 21.4360   1
   5   3  -6 653.339 18.6999   6
   5   3  -6 645.410 19.3873   3
  -5   3   6 643.176 18.6846   6
   5   3  -6 648.743 20.9951   2
  -5   3   6 697.807 21.0290   6
   5   3  -6 664.438 20.9538   1
  -3  -3   6 27.0289 3.93621   6
   3  -3  -6 27.6944 6.34362   3
  -3  -3   6 31.1091 3.93988   6
  -3  -3   6 28.4714 6.09503   1
   3  -3  -6 25.7295 6.01499   6
  -3  -3   6 30.8366 4.11183   4
   3  -3  -6 30.0251 6.39789   6
   3  -3  -6 25.8722 5.57274   6
   3  -3  -6 24.3775 4.63657   2
   3  -3  -6 22.0803 6.89781   1
  -3  -3   6 25.6661 5.80421   2
   3  -3  -6 37.0912 5.46348   4
   3   3  -6 29.1445 6.19487   3
   3   3  -6 18.5370 4.56662   6
  -3   3   6 17.8225 5.55535   1
  -3   3   6 21.6182 5.11205   4
   3   3  -6 34.5130 7.23458   1
   3   3  -6 22.0260 5.40448   6
   3   3  -6 34.8499 6.21665   2
  -3   3   6 22.4515 5.27170   6
  -3   3   6 32.6816 6.01102   6
   1  -3  -6 21.8847 5.02202   2
   1  -3  -6 30.1563 6.17530   6
  -1  -3   6 28.7971 5.96142   2
   1  -3  -6 32.5918 7.51471   1
   1  -3  -6 29.0837 6.63353   6
   1  -3  -6 28.4963 4.85501   4
  -1  -3   6 26.5799 3.10949   4
   1  -3  -6 29.4180 6.24876   6
  -1   3   6 24.6122 5.40233   6
   1   3  -6 13.8898 5.49948   3
  -1   3   6 17.2934 6.86772   1
   1   3  -6 29.8730 5.99281   2
  -1   3   6 22.7879 4.97833   4
   1   3  -6 36.3144 7.58374   6
   1   3  -6 31.4351 7.46554   1
  -1   3   6 29.5287 5.81403   6
  -1  -3  -6 237.180 12.4822   6
  -1  -3  -6 242.518 12.1004   6
   1  -3   6 227.552 12.6684   2
  -1  -3  -6 226.152 9.54614   4
  -1  -3  -6 241.546 12.4765   6
  -1  -3  -6 257.546 14.5854   1
  -1  -3  -6 237.677 11.4950   2
   1   3   6 241.120 10.2297   6
   1   3   6 225.374 9.80570   6
   1   3   6 240.907 10.0665   4
  -1   3  -6 230.547 10.2391   6
  -1   3  -6 231.597 11.9970   3
  -1   3  -6 226.060 13.8599   1
   3  -3   6 1177.02 31.4232   2
  -3  -3  -6 1214.42 29.6894   6
  -3  -3  -6 1168.95 25.7428   4
  -3  -3  -6 1188.10 29.3459   6
  -3  -3  -6 1210.53 32.0436   1
   3   3   6 1188.66 26.0338   4
  -3   3  -6 1269.57 33.7562   1
   3   3   6 1156.39 23.5179   6
  -3   3  -6 1170.32 25.8143   6
   3   3   6 1198.54 23.6913   6
  -5  -3  -6 109.526 10.9260   6
  -5  -3  -6 111.056 10.9670   6
  -5  -3  -6 95.8792 10.6596   1
  -5  -3  -6 106.785 7.73583   4
   5  -3   6 98.3414 11.2396   2
   5   3   6 101.072 7.85703   4
  -5   3  -6 112.561 11.9805   1
  -7  -3  -6 -2.4990 3.77341   4
  -7  -3  -6 14.9860 6.53951   6
   7  -3   6 -2.5313 6.19760   2
  -7  -3  -6 1.79790 5.73941   6
  -7  -3  -6 -5.2852 6.25704   1
  -7   3  -6 9.13405 3.66470   6
  -7   3  -6 -4.3613 6.47849   1
   9  -3   6 -6.3290 5.08421   2
  -9  -3  -6 -0.4487 3.76370   4
  -9  -3  -6 4.72929 3.95960   5
  -9  -3  -6 10.8408 6.56420   6
  -9  -3  -6 4.16773 5.96493   1
  -9  -3  -6 0.21802 6.13149   6
  -9   3  -6 5.30807 3.19757   6
 -11  -3  -6 103.275 11.3239   6
 -11  -3  -6 101.146 10.8508   1
 -11  -3  -6 109.163 11.1879   6
 -11  -3  -6 111.361 8.17624   5
 -11  -3  -6 76.0878 7.70471   4
 -11   3  -6 119.503 13.1159   1
 -13   3  -6 64.2425 9.71532   1
 -22  -4   6 8.65088 6.61797   6
 -22  -4   6 16.6451 8.39964   3
  22  -4  -6 9.26737 7.59721   5
  22   4  -6 9.10524 5.35973   5
 -22   4   6 -1.5530 6.57801   3
 -22   4   6 9.29326 7.32795   4
 -20  -4   6 10.7834 6.42118   6
 -20  -4   6 -0.0357 6.41993   3
  20  -4  -6 -7.3516 5.54189   5
 -20   4   6 9.11348 6.77425   3
 -20   4   6 13.6203 7.28967   4
  20   4  -6 -0.2842 5.34589   5
 -20   4   6 12.8180 4.70873   6
  18  -4  -6 32.8605 9.05194   5
 -18  -4   6 23.1399 7.52172   6
 -18  -4   6 16.5724 7.39024   3
  18   4  -6 36.5331 5.40206   6
 -18   4   6 23.3793 7.69644   4
 -18   4   6 35.2890 7.58310   3
 -18   4   6 34.2612 6.09600   6
  18   4  -6 37.5075 5.48609   1
 -16  -4   6 199.194 9.80982   1
 -16  -4   6 200.138 16.5213   3
 -16  -4   6 207.122 13.2675   6
  16  -4  -6 215.768 20.3808   5
 -16   4   6 203.646 13.3444   3
 -16   4   6 204.675 14.1296   4
 -16   4   6 193.199 10.3791   6
  16   4  -6 203.742 9.84598   6
  16   4  -6 212.455 10.3268   6
  16   4  -6 198.759 10.8434   1
 -14  -4   6 191.486 12.3227   6
  14  -4  -6 203.048 12.7623   5
 -14  -4   6 179.575 10.1914   1
 -14  -4   6 180.530 11.5606   6
 -14  -4   6 220.045 13.5009   3
  14   4  -6 215.692 10.8388   6
 -14   4   6 210.675 13.9922   4
 -14   4   6 201.884 12.4842   3
  14   4  -6 209.104 11.4579   1
  14   4  -6 213.683 10.7150   6
  12  -4  -6 265.536 13.6923   5
 -12  -4   6 265.092 13.2828   6
 -12  -4   6 253.397 12.5480   6
 -12  -4   6 253.018 14.2289   1
  12  -4  -6 242.220 12.3612   3
 -12  -4   6 249.574 13.7646   3
  12   4  -6 252.080 12.0843   6
 -12   4   6 279.519 12.2273   6
  12   4  -6 259.286 12.4968   1
 -12   4   6 253.610 13.1445   3
 -12   4   6 295.596 14.7240   4
  10  -4  -6 169.468 6.69068   6
 -10  -4   6 181.747 10.7479   1
 -10  -4   6 176.346 11.8688   3
  10  -4  -6 175.017 6.64465   6
  10  -4  -6 155.609 11.0738   5
 -10  -4   6 159.681 10.3757   2
 -10  -4   6 158.492 10.4830   6
  10  -4  -6 157.862 10.1562   3
 -10  -4   6 167.176 10.2628   6
 -10  -4   6 161.193 10.4746   4
  10   4  -6 171.368 10.2855   6
 -10   4   6 165.462 11.2374   3
  10   4  -6 165.479 10.6803   6
  10   4  -6 171.316 11.2052   1
 -10   4   6 166.598 11.6228   4
 -10   4   6 192.052 10.6268   6
  -8  -4   6 244.286 11.6863   4
  -8  -4   6 246.988 11.9730   2
  -8  -4   6 249.015 14.3903   6
   8  -4  -6 250.254 12.1965   3
   8  -4  -6 232.792 6.48415   2
  -8  -4   6 245.938 12.8146   3
  -8  -4   6 257.811 12.9035   1
   8  -4  -6 260.425 12.6365   5
  -8  -4   6 253.898 11.6301   6
   8  -4  -6 233.014 9.99393   6
   8   4  -6 238.344 13.1337   1
  -8   4   6 242.764 12.2972   6
  -8   4   6 236.662 12.6019   4
   8   4  -6 241.787 12.2784   3
  -8   4   6 251.109 12.3961   3
   8   4  -6 243.927 11.4567   6
   8   4  -6 247.596 12.2567   6
  -8   4   6 246.146 11.7915   6
   6  -4  -6 927.013 22.3602   6
  -6  -4   6 871.408 22.1323   4
   6  -4  -6 885.065 19.1463   2
  -6  -4   6 918.057 22.0200   6
  -6  -4   6 904.634 21.7116   6
  -6  -4   6 951.639 24.3213   2
   6  -4  -6 875.878 23.5128   4
   6  -4  -6 885.988 23.9206   3
   6  -4  -6 909.954 24.8224   5
   6  -4  -6 919.088 22.6421   6
  -6  -4   6 942.010 24.7775   3
  -6  -4   6 864.159 25.6274   1
  -6   4   6 918.219 24.3716   4
   6   4  -6 859.173 23.5036   3
   6   4  -6 894.516 23.1944   6
   6   4  -6 933.342 23.7237   6
  -6   4   6 890.053 23.6832   6
  -6   4   6 874.361 25.7058   6
   6   4  -6 903.936 26.0311   1
   4  -4  -6 1193.97 25.5844   2
  -4  -4   6 1183.53 28.8284   3
   4  -4  -6 1198.48 29.0075   5
  -4  -4   6 1188.54 24.0973   6
  -4  -4   6 1176.41 29.0211   2
   4  -4  -6 1186.57 28.1097   6
  -4  -4   6 1147.22 25.4355   4
   4  -4  -6 1131.86 27.3320   6
   4  -4  -6 1148.16 29.2916   3
  -4  -4   6 1184.68 23.9798   6
   4  -4  -6 1178.74 31.1849   4
   4   4  -6 1198.99 27.9658   6
   4   4  -6 1188.50 29.0503   3
  -4   4   6 1196.73 28.1198   4
   4   4  -6 1222.20 31.7223   1
  -4   4   6 1224.60 28.7333   6
  -4   4   6 1171.41 28.1919   6
   4   4  -6 1156.78 27.2734   6
   2  -4  -6 2179.94 44.7368   4
   2  -4  -6 2232.76 46.0165   6
   2  -4  -6 2237.87 44.2178   2
  -2  -4   6 2285.45 47.7499   2
   2  -4  -6 2205.70 45.7309   6
  -2  -4   6 2150.88 41.1480   4
   2  -4  -6 2390.01 59.5328   3
   2   4  -6 2242.32 49.6550   1
  -2   4   6 2210.74 45.1148   6
  -2   4   6 2225.03 45.1381   4
  -2   4   6 2282.51 45.8341   6
   2   4  -6 2206.32 44.3599   6
   2   4  -6 2225.18 45.9516   3
   0  -4   6 1696.54 38.5769   2
   0  -4  -6 1670.67 36.9253   6
   0  -4  -6 1593.10 38.9874   1
   0  -4  -6 1622.15 36.6167   6
   0  -4   6 1612.07 30.0168   4
   0  -4  -6 1635.17 36.0004   2
   0  -4  -6 1631.48 34.6485   4
   0   4   6 1667.91 38.2083   4
   0   4  -6 1596.87 36.3294   3
   0   4  -6 1600.91 39.7937   1
   0   4  -6 1587.72 33.6973   6
   0   4   6 1622.24 34.9554   6
   0   4   6 1629.72 34.8943   6
   2  -4   6 -2.9626 4.93041   2
  -2  -4  -6 5.71137 11.1765   6
  -2  -4  -6 0.93078 6.32806   1
  -2  -4  -6 -5.0506 3.90507   4
  -2   4  -6 -2.3420 6.06630   1
   2   4   6 6.97697 4.36353   6
   2   4   6 -1.6274 4.45981   6
  -2   4  -6 -3.0660 5.07483   3
  -2   4  -6 -6.4492 3.68924   6
  -4  -4  -6 1402.46 34.2146   6
  -4  -4  -6 1392.60 35.8134   1
  -4  -4  -6 1351.53 30.7189   4
   4  -4   6 1478.41 39.7874   2
   4   4   6 1410.37 27.7720   6
  -4   4  -6 1356.12 28.8052   6
   4   4   6 1431.59 27.8306   6
  -4   4  -6 1368.58 37.3805   1
   4   4   6 1413.68 34.1813   4
  -6  -4  -6 1055.08 30.2125   1
  -6  -4  -6 1070.39 27.5195   4
   6  -4   6 1088.27 31.8762   2
  -6  -4  -6 1089.40 29.2234   6
  -6   4  -6 1114.41 36.9070   1
   6   4   6 1094.04 26.0393   4
  -6   4  -6 1061.31 23.1449   6
  -8  -4  -6 369.662 15.0887   4
   8  -4   6 392.420 19.0075   2
  -8  -4  -6 366.489 17.2042   6
  -8   4  -6 371.876 18.8864   1
  -8   4  -6 363.333 10.8970   6
 -10  -4  -6 204.584 10.3975   4
 -10  -4  -6 199.707 7.91246   5
 -10  -4  -6 214.210 14.6536   6
  10  -4   6 194.873 15.8596   2
 -10   4  -6 201.179 8.28395   6
 -10   4  -6 179.302 14.9817   1
 -12  -4  -6 1.16867 7.07726   6
 -12   4  -6 -3.2446 6.83749   1
 -21  -5   6 27.4669 8.90821   3
  21  -5  -6 31.1296 8.98663   5
 -21  -5   6 27.9373 7.75787   6
  21   5  -6 18.0115 5.74388   5
 -21   5   6 28.4700 7.92444   3
 -21   5   6 2.39300 7.22034   4
 -19  -5   6 22.0028 7.97489   3
  19  -5  -6 15.3055 7.36238   5
 -19  -5   6 14.9429 6.59145   6
  19   5  -6 2.41540 3.73456   1
 -19   5   6 4.52429 4.53119   6
 -19   5   6 7.09758 6.74805   4
 -19   5   6 13.3343 6.48061   3
 -17  -5   6 169.402 13.0481   6
 -17  -5   6 163.120 14.0411   3
  17  -5  -6 163.710 13.9685   5
 -17   5   6 156.442 9.77013   6
  17   5  -6 157.433 10.9961   1
 -17   5   6 152.182 13.4107   4
 -17   5   6 165.967 12.3639   3
  17   5  -6 155.957 9.11357   6
  17   5  -6 164.305 9.62690   6
 -15  -5   6 560.779 20.4470   6
  15  -5  -6 590.671 22.2405   5
  15   5  -6 565.971 17.4890   6
  15   5  -6 567.398 18.0940   6
  15   5  -6 601.860 18.6267   1
 -15   5   6 579.415 22.1728   4
 -15   5   6 566.110 20.0088   3
 -15   5   6 594.302 18.3572   6
 -13  -5   6 198.537 13.7066   3
 -13  -5   6 180.790 10.9273   1
  13  -5  -6 198.433 11.4457   3
  13  -5  -6 181.348 12.6634   5
 -13  -5   6 185.616 12.2633   6
 -13  -5   6 193.844 11.8164   6
  13   5  -6 194.542 11.9530   1
 -13   5   6 180.756 10.6381   6
 -13   5   6 193.012 11.9017   3
 -13   5   6 194.613 13.5995   4
  13   5  -6 178.440 11.2550   6
  13   5  -6 216.665 15.7713   6
  11  -5  -6 103.825 11.1404   5
 -11  -5   6 108.481 10.1395   6
 -11  -5   6 98.0521 9.32862   1
 -11  -5   6 116.956 11.2196   3
 -11  -5   6 102.283 9.80785   6
  11  -5  -6 115.815 9.30074   3
 -11  -5   6 109.503 10.1945   2
 -11   5   6 103.715 10.1441   4
 -11   5   6 96.8945 9.31010   6
  11   5  -6 103.838 10.1025   1
 -11   5   6 105.123 9.93967   3
  11   5  -6 109.189 10.1631   6
  11   5  -6 101.603 9.45001   6
  -9  -5   6 66.5077 9.66126   6
  -9  -5   6 82.7751 8.96138   2
  -9  -5   6 82.6310 13.2231   1
   9  -5  -6 72.2917 4.02973   2
   9  -5  -6 88.0695 10.3239   5
   9  -5  -6 88.3197 5.95810   6
   9  -5  -6 76.7704 6.23419   6
  -9  -5   6 84.1535 9.32392   3
  -9  -5   6 74.2608 7.97866   6
   9  -5  -6 82.4167 8.25526   3
   9   5  -6 81.2596 9.52875   6
   9   5  -6 86.2422 8.90411   6
   9   5  -6 84.2375 9.60166   1
  -9   5   6 84.0932 9.71451   4
  -9   5   6 84.9911 9.25895   6
   7  -5  -6 119.754 9.37967   3
  -7  -5   6 119.237 10.0205   3
  -7  -5   6 114.119 9.93117   2
   7  -5  -6 110.032 8.35485   6
  -7  -5   6 126.202 8.50658   6
   7  -5  -6 113.644 10.5892   5
  -7  -5   6 122.805 8.67475   6
  -7  -5   6 128.208 9.60925   4
   7   5  -6 127.871 11.7228   1
  -7   5   6 116.222 10.7719   4
   7   5  -6 121.616 13.7005   6
  -7   5   6 121.612 10.5197   6
   7   5  -6 110.696 9.29894   3
  -7   5   6 115.381 9.46545   6
   7   5  -6 122.085 9.54530   6
  -5  -5   6 309.121 10.5103   6
   5  -5  -6 302.042 13.4104   3
  -5  -5   6 339.871 14.2061   3
  -5  -5   6 314.636 10.7785   6
   5  -5  -6 332.143 16.1143   4
   5  -5  -6 323.737 12.9939   6
   5  -5  -6 314.064 14.2725   5
   5  -5  -6 339.882 13.5676   6
  -5  -5   6 311.641 12.5065   4
  -5  -5   6 306.963 13.7507   2
   5   5  -6 339.460 15.9444   1
   5   5  -6 300.226 13.0192   3
  -5   5   6 318.673 14.8427   4
   5   5  -6 326.888 13.8673   6
  -5   5   6 317.214 14.4150   6
  -3  -5   6 45.0975 7.70340   2
   3  -5  -6 48.6487 7.67334   6
   3  -5  -6 32.7824 7.70965   3
  -3  -5   6 42.2312 5.60006   4
   3  -5  -6 49.5722 7.24207   6
   3  -5  -6 50.4174 7.62478   5
   3  -5  -6 32.8405 6.58951   4
  -3   5   6 47.4340 7.71666   6
   3   5  -6 41.3892 6.68154   6
  -3   5   6 37.2715 7.05591   4
   3   5  -6 43.3887 7.82671   1
   3   5  -6 42.3595 6.49556   3
  -3   5   6 43.8323 7.62558   6
  -1  -5   6 40.5928 7.81370   2
  -1  -5   6 33.2457 4.82637   4
   1  -5  -6 41.5160 6.31769   4
   1  -5  -6 47.0822 7.68644   6
   1  -5  -6 48.1158 8.03495   6
   1  -5  -6 48.4308 7.52926   5
   1   5  -6 43.6957 8.82214   1
   1   5  -6 39.7643 6.37555   3
  -1   5   6 40.9191 7.13033   4
   1   5  -6 51.2503 8.79798   6
  -1   5   6 32.7806 6.95883   6
  -1   5   6 41.2163 7.28796   6
  -1  -5  -6 -1.3734 4.56846   4
  -1  -5  -6 5.12254 6.46952   6
   1  -5   6 1.73300 5.28908   2
  -1  -5  -6 -1.1538 5.07449   5
   1  -5   6 -0.3424 3.12578   4
  -1  -5  -6 3.03663 6.02283   6
  -1   5  -6 -0.9480 5.94754   1
  -1   5  -6 6.14022 5.07880   3
   1   5   6 3.72363 5.27373   4
  -1   5  -6 0.39870 4.16342   6
   1   5   6 -1.4092 5.21230   6
   1   5   6 5.02228 5.00855   6
  -3  -5  -6 95.7190 8.51929   5
   3  -5   6 94.7282 16.1286   2
  -3  -5  -6 95.5857 10.5403   6
  -3  -5  -6 85.9696 8.57108   4
   3   5   6 90.3735 7.82814   6
  -3   5  -6 66.1386 7.23006   6
  -3   5  -6 79.3100 8.40237   3
   3   5   6 84.1680 8.91389   4
  -3   5  -6 98.8288 11.3985   1
  -5  -5  -6 6.68555 7.18885   6
   5  -5   6 6.18574 5.84422   2
  -5  -5  -6 5.39101 4.76142   5
  -5  -5  -6 7.74219 4.83379   4
   5   5   6 9.86842 4.25247   6
   5   5   6 10.4572 4.82548   6
  -5   5  -6 12.5169 7.92566   1
  -5   5  -6 -0.0673 3.55510   6
   5   5   6 4.56471 5.67910   4
   7  -5   6 -2.7519 6.42794   2
  -7  -5  -6 11.1443 4.23410   5
  -7  -5  -6 12.1376 7.63391   6
  -7   5  -6 9.87642 3.69377   6
   7   5   6 1.34872 5.24197   4
  -7   5  -6 8.08933 7.61904   1
   9  -5   6 48.6776 9.78815   2
  -9  -5  -6 43.7378 8.83647   6
  -9  -5  -6 41.9163 4.80559   5
  -9   5  -6 37.5126 8.83462   1
 -11  -5  -6 -3.0898 7.14834   6
  11  -5   6 4.31656 9.23005   2
 -11   5  -6 9.59572 7.36554   1
 -20  -6   6 21.0297 7.31142   6
  20  -6  -6 9.76128 8.21311   5
 -20  -6   6 2.93376 7.17281   3
 -20   6   6 18.6842 10.0631   3
 -20   6   6 5.26029 7.91708   4
  20   6  -6 -0.8181 3.65353   1
 -18  -6   6 27.7917 8.19894   6
  18  -6  -6 25.5117 8.81020   5
 -18  -6   6 14.5727 8.55051   3
 -18   6   6 18.0586 6.54289   3
 -18   6   6 26.8750 5.82211   6
 -18   6   6 39.3773 9.31752   4
  18   6  -6 24.4498 5.65582   6
  18   6  -6 20.7213 4.83441   6
 -16  -6   6 57.6514 9.44503   3
 -16  -6   6 61.1059 9.42501   6
  16  -6  -6 57.9940 10.5232   5
  16   6  -6 55.0073 7.43242   6
 -16   6   6 74.7721 9.01042   3
 -16   6   6 79.1189 10.5376   4
 -16   6   6 64.0135 7.55207   6
  16   6  -6 57.1329 7.13911   1
  16   6  -6 52.9001 9.80875   6
 -14  -6   6 -2.3959 5.43666   6
 -14  -6   6 -5.8606 6.70978   3
 -14  -6   6 2.77113 5.15472   6
  14  -6  -6 10.8948 7.59757   5
 -14   6   6 -3.8629 6.37183   4
  14   6  -6 -1.1767 5.49688   6
 -14   6   6 -3.6115 5.18700   3
 -14   6   6 1.02336 5.29613   6
  14   6  -6 3.09179 4.94836   1
 -12  -6   6 -3.9040 5.25809   6
  12  -6  -6 -3.0731 4.11881   3
 -12  -6   6 -8.7357 5.59664   3
  12  -6  -6 -3.7233 6.99336   5
 -12  -6   6 -5.4626 5.30812   2
 -12  -6   6 -0.3785 5.14381   6
  12   6  -6 -4.4723 5.02352   1
 -12   6   6 4.48350 5.15814   3
 -12   6   6 -3.0395 4.94077   6
  12   6  -6 -1.4796 5.29942   6
 -12   6   6 11.4089 7.38828   4
  12   6  -6 -4.9950 5.44795   6
 -10  -6   6 29.4062 7.05923   6
 -10  -6   6 15.4024 6.65377   3
  10  -6  -6 22.5487 2.85326   2
 -10  -6   6 16.9147 5.69609   6
  10  -6  -6 22.1313 5.80172   3
  10  -6  -6 25.3004 8.19263   5
 -10  -6   6 21.3804 6.15839   2
 -10   6   6 30.4198 6.81256   6
  10   6  -6 21.0781 6.98730   1
 -10   6   6 17.3282 6.51355   4
  10   6  -6 11.0502 6.21965   6
  10   6  -6 31.2633 11.2981   6
   8  -6  -6 90.2856 8.60865   3
  -8  -6   6 96.3862 8.88853   6
  -8  -6   6 95.5659 8.30836   6
   8  -6  -6 94.4549 9.90821   5
   8  -6  -6 106.984 7.01403   6
  -8  -6   6 106.370 10.7246   2
  -8  -6   6 109.944 10.0904   3
   8  -6  -6 100.654 7.16042   6
   8   6  -6 98.4404 10.9699   3
   8   6  -6 91.6884 9.55095   6
  -8   6   6 102.427 10.9321   4
   8   6  -6 108.505 11.4254   1
  -8   6   6 101.664 10.4482   6
   8   6  -6 95.1795 10.6428   6
  -6  -6   6 15.4023 5.72697   4
   6  -6  -6 13.8079 6.04352   5
  -6  -6   6 19.1018 4.82664   6
   6  -6  -6 24.7013 5.74159   3
  -6  -6   6 14.0098 6.19674   3
  -6  -6   6 24.9460 6.82988   2
  -6  -6   6 17.2068 8.26664   6
   6  -6  -6 24.1481 5.67532   6
   6   6  -6 32.4391 7.98210   1
   6   6  -6 11.1026 6.27964   6
  -6   6   6 15.8517 6.75393   6
  -6   6   6 16.5767 6.72069   4
   6   6  -6 20.4297 5.72045   3
  -4  -6   6 98.2036 10.5952   2
   4  -6  -6 95.6664 10.8785   3
   4  -6  -6 108.591 9.80900   6
  -4  -6   6 125.744 10.9822   4
  -4  -6   6 118.832 9.99896   3
   4  -6  -6 104.904 8.99019   6
   4  -6  -6 120.359 10.5009   5
   4   6  -6 94.6315 8.48604   3
  -4   6   6 117.279 10.4502   6
   4   6  -6 109.337 10.4138   6
  -4   6   6 111.835 11.1588   6
   4   6  -6 116.838 12.4885   1
  -4   6   6 95.1280 10.5601   4
   2  -6  -6 67.6797 8.26608   6
   2  -6  -6 77.0810 9.31651   6
  -2  -6   6 65.9016 6.87771   4
  -2  -6   6 64.2171 9.13934   2
   2  -6  -6 75.2085 8.63820   5
   2   6  -6 60.6865 8.20132   3
  -2   6   6 68.5685 9.04150   4
  -2   6   6 74.6034 8.88593   6
   2   6  -6 68.1527 8.25822   6
  -2   6   6 76.8373 9.22013   6
   2   6  -6 65.6840 9.51507   1
   0  -6  -6 78.2982 8.62039   5
   0  -6   6 74.1196 6.84358   4
   0  -6  -6 64.6106 8.81202   6
   0  -6  -6 87.6961 9.76895   6
   0  -6   6 86.3126 10.3167   2
   0   6  -6 76.8459 8.04254   6
   0   6  -6 69.3340 7.87110   3
   0   6  -6 65.9547 12.7989   1
   0   6   6 69.9440 8.98708   4
   0   6   6 70.0477 8.90716   6
   0   6   6 77.0296 9.20940   6
  -2  -6  -6 29.8866 12.3464   6
  -2  -6  -6 11.6974 7.05065   6
   2  -6   6 17.8919 6.72897   2
   2  -6   6 20.9507 4.03424   4
  -2  -6  -6 33.9156 6.53931   5
  -2   6  -6 19.7800 5.25210   3
  -2   6  -6 21.9860 7.55580   1
   2   6   6 32.0307 6.24905   6
  -2   6  -6 22.5406 5.29903   6
   2   6   6 22.8710 6.71551   6
   2   6   6 31.1635 7.06212   4
  -4  -6  -6 6.18566 6.99280   6
  -4  -6  -6 4.26011 5.80669   5
   4  -6   6 -2.3786 5.17038   2
   4   6   6 5.75768 5.04697   6
  -4   6  -6 7.69562 4.82599   3
  -4   6  -6 6.90535 7.70222   1
   4   6   6 14.0560 6.17550   4
  -4   6  -6 11.3386 4.32717   6
   4   6   6 10.6728 6.28075   6
   6  -6   6 1.64577 6.47733   2
  -6  -6  -6 1.41393 7.11968   6
  -6  -6  -6 8.19313 4.23491   5
  -6   6  -6 3.39592 3.59684   6
   6   6   6 -1.6395 3.85525   6
   6   6   6 -6.9071 5.04824   4
   6   6   6 5.86562 4.43699   6
  -6   6  -6 -4.6123 5.68906   1
   8  -6   6 18.1069 7.46995   2
  -8  -6  -6 21.8196 3.94157   5
  -8  -6  -6 19.9671 8.16336   6
  -8   6  -6 12.6321 7.86343   1
  -8   6  -6 31.9489 4.28695   6
 -10  -6  -6 0.98363 6.81546   6
  10  -6   6 4.75216 8.57140   2
 -10   6  -6 4.59729 7.65353   1
  19  -7  -6 55.4521 10.1619   5
 -19  -7   6 51.4454 9.34364   6
 -19  -7   6 59.9969 11.5312   3
  19   7  -6 39.0502 6.46565   6
  19   7  -6 69.7313 7.49138   6
 -19   7   6 72.3903 15.1329   4
 -19   7   6 44.0653 7.56880   3
 -17  -7   6 36.2943 8.43091   6
  17  -7  -6 28.0029 8.68889   5
 -17  -7   6 34.7600 9.24045   3
  17   7  -6 24.5972 5.72705   1
 -17   7   6 45.6031 6.81310   6
 -17   7   6 30.9565 6.82166   3
  17   7  -6 26.1990 6.27240   6
 -17   7   6 19.1767 8.15073   4
 -15  -7   6 11.5580 6.65744   6
  15  -7  -6 4.55632 6.43377   5
 -15  -7   6 25.3533 6.90526   6
 -15  -7   6 8.78471 6.95170   3
  15   7  -6 14.9381 6.21185   1
 -15   7   6 11.0413 7.09238   4
  15   7  -6 11.7424 5.87114   6
 -15   7   6 14.4019 5.48996   3
 -13  -7   6 2.33431 5.93153   6
  13  -7  -6 1.99398 7.24423   5
  13  -7  -6 6.22112 4.49752   3
 -13  -7   6 8.41668 5.27404   6
 -13  -7   6 0.95252 6.60888   3
  13   7  -6 11.6797 6.42161   6
  13   7  -6 3.91340 5.58172   1
  13   7  -6 0.24606 5.35240   6
 -13   7   6 7.91177 5.46300   6
 -13   7   6 -3.7631 6.32510   4
 -11  -7   6 191.013 11.3934   6
  11  -7  -6 188.410 7.02737   2
 -11  -7   6 181.610 13.2998   3
  11  -7  -6 180.409 13.2442   5
 -11  -7   6 218.461 12.7914   6
  11  -7  -6 209.147 11.2894   3
  11   7  -6 193.737 13.3249   1
  11   7  -6 200.763 15.7353   6
  11   7  -6 184.308 12.8860   6
 -11   7   6 216.883 15.1726   4
 -11   7   6 175.686 12.1744   6
   9  -7  -6 699.305 16.6135   2
  -9  -7   6 682.036 20.4947   6
  -9  -7   6 688.505 22.1359   3
  -9  -7   6 674.786 19.7239   6
  -9  -7   6 692.884 23.5980   2
   9  -7  -6 713.094 20.4040   3
   9   7  -6 698.047 24.0822   1
  -9   7   6 688.396 25.7653   4
  -9   7   6 675.657 22.1885   6
   9   7  -6 698.590 22.7200   6
   7  -7  -6 665.618 17.0056   6
  -7  -7   6 682.064 21.1717   3
   7  -7  -6 686.345 19.1156   6
  -7  -7   6 662.748 22.7747   2
   7  -7  -6 658.769 22.5684   5
   7  -7  -6 623.098 19.5333   3
   7   7  -6 608.898 19.9496   3
   7   7  -6 682.729 22.1307   6
  -7   7   6 657.894 22.0326   6
  -7   7   6 664.397 23.2448   4
   7   7  -6 690.320 24.7517   1
   5  -7  -6 184.263 12.4518   5
  -5  -7   6 184.868 7.47882   6
  -5  -7   6 192.680 13.9335   2
   5  -7  -6 189.853 14.3865   6
   5  -7  -6 180.463 12.2386   3
  -5  -7   6 195.653 7.37127   6
  -5  -7   6 194.336 11.7461   3
   5   7  -6 182.773 10.4814   3
  -5   7   6 202.271 13.6530   6
   5   7  -6 196.880 12.9408   6
   5   7  -6 198.225 13.8940   1
  -5   7   6 190.654 13.5165   4
   3  -7  -6 -8.2624 5.18796   5
  -3  -7   6 -0.6784 6.47942   2
   3  -7  -6 5.31504 6.78024   6
  -3  -7   6 1.91457 4.43030   4
   3   7  -6 7.54734 4.59717   3
  -3   7   6 -5.0945 5.32154   4
  -3   7   6 9.34708 6.41888   6
  -3   7   6 -5.9633 5.81553   6
   3   7  -6 -8.4845 4.82553   6
   3   7  -6 18.6752 12.4764   1
   1  -7  -6 141.719 11.0099   5
  -1  -7   6 145.493 10.7297   4
  -1  -7   6 141.104 12.4270   2
   1  -7  -6 149.307 11.1682   6
   1  -7  -6 124.776 14.3609   6
  -1   7   6 125.481 11.9639   4
  -1   7   6 147.915 11.8936   6
   1   7  -6 180.125 14.8615   1
  -1   7   6 141.821 11.9162   6
   1   7  -6 148.339 10.5914   6
  -1  -7  -6 383.341 15.1433   5
  -1  -7  -6 414.003 20.6881   6
   1  -7   6 418.508 13.7418   4
   1  -7   6 381.300 18.2762   2
  -1  -7  -6 409.964 19.0709   6
   1   7   6 398.738 17.8679   4
   1   7   6 393.737 17.0912   6
  -1   7  -6 410.093 20.2478   1
  -1   7  -6 409.496 17.6926   4
  -1   7  -6 410.461 15.0956   6
  -1   7  -6 390.824 16.5817   3
   1   7   6 396.182 16.4004   6
  -3  -7  -6 109.417 12.5160   6
  -3  -7  -6 136.536 9.48534   5
   3  -7   6 130.532 8.02866   4
   3  -7   6 144.050 13.2123   2
   3   7   6 123.606 10.0907   6
   3   7   6 145.965 11.3088   6
  -3   7  -6 152.417 8.74728   4
  -3   7  -6 154.532 9.16868   6
  -3   7  -6 117.955 13.0753   1
   3   7   6 124.286 11.9912   4
  -3   7  -6 139.433 9.18378   3
   5  -7   6 29.3373 8.57724   2
  -5  -7  -6 43.7234 9.61548   6
  -5   7  -6 45.9567 9.17490   6
   5   7   6 39.3866 6.89767   6
  -5   7  -6 46.5708 10.5658   1
   5   7   6 28.5646 7.74136   4
  -5   7  -6 19.9638 5.39016   3
  -5   7  -6 40.7631 4.98307   4
   5   7   6 41.0945 6.11352   6
  -7  -7  -6 13.5914 8.35626   6
   7  -7   6 18.0492 7.68310   2
  -7  -7  -6 18.9196 3.94723   5
   7   7   6 19.8420 5.09013   6
   7   7   6 20.8009 4.76577   6
  -7   7  -6 14.3415 3.75595   4
  -7   7  -6 23.0428 9.38188   1
   9  -7   6 34.3044 9.31115   2
  -9  -7  -6 39.9968 12.1597   6
  -9   7  -6 44.8612 10.4408   1
 -18  -8   6 16.1454 8.04365   6
  18  -8  -6 13.4587 8.20287   5
 -18  -8   6 3.63830 8.08200   3
  18   8  -6 3.44508 5.44820   6
 -18   8   6 11.5978 5.38135   3
  18   8  -6 -2.1592 4.63566   1
 -18   8   6 -3.0706 7.07212   4
 -16  -8   6 29.2970 7.97949   6
  16  -8  -6 32.2566 9.68109   5
 -16  -8   6 23.2141 8.27380   3
 -16   8   6 35.8402 6.69025   3
  16   8  -6 27.3237 7.11497   6
  16   8  -6 15.4948 6.80812   6
  16   8  -6 15.8069 5.51366   1
 -16   8   6 17.6475 10.7806   6
 -16   8   6 29.7544 9.05530   4
 -14  -8   6 106.950 11.3508   6
 -14  -8   6 107.621 9.79910   6
  14  -8  -6 110.677 5.28166   2
  14  -8  -6 85.4665 11.6318   5
 -14  -8   6 126.743 12.4820   3
  14  -8  -6 112.149 8.75329   3
  14   8  -6 121.158 10.7205   6
  14   8  -6 112.598 11.1701   1
  14   8  -6 100.702 11.4383   6
 -14   8   6 129.818 11.2320   6
 -14   8   6 97.0702 12.7337   4
 -12  -8   6 116.988 10.9991   6
  12  -8  -6 109.388 11.9005   5
 -12  -8   6 133.233 10.0772   6
 -12  -8   6 119.472 12.0897   2
  12  -8  -6 122.920 6.42598   2
  12  -8  -6 99.8863 8.41287   3
 -12  -8   6 125.403 11.8070   3
 -12   8   6 121.941 11.2657   6
  12   8  -6 119.909 12.1814   1
  12   8  -6 133.273 12.2573   6
 -12   8   6 115.191 13.3168   4
  12   8  -6 132.403 10.9343   6
 -10  -8   6 23.4976 6.81759   3
  10  -8  -6 7.74734 6.99549   5
 -10  -8   6 12.7903 6.35586   2
  10  -8  -6 11.3532 3.76359   2
 -10  -8   6 26.0999 5.75463   6
  10  -8  -6 18.3556 4.96591   3
 -10  -8   6 25.1790 6.65737   6
 -10   8   6 18.4682 8.14816   4
  10   8  -6 11.4583 6.57912   1
 -10   8   6 17.9508 7.00129   6
  10   8  -6 7.76696 6.67398   6
  -8  -8   6 40.4018 6.64348   6
   8  -8  -6 52.8484 6.90541   3
  -8  -8   6 36.8826 8.18021   2
  -8  -8   6 50.3016 7.98518   3
   8  -8  -6 55.6471 10.0551   5
  -8   8   6 44.3941 8.79309   6
  -8   8   6 48.1215 9.76277   4
   8   8  -6 41.0472 8.67064   6
   6  -8  -6 208.532 9.63970   6
   6  -8  -6 211.968 10.4892   6
  -6  -8   6 199.999 8.74971   6
  -6  -8   6 213.897 11.8313   3
  -6  -8   6 206.029 8.57601   6
  -6  -8   6 222.501 14.5613   2
   6  -8  -6 182.275 15.2379   5
   6  -8  -6 195.745 11.2771   3
  -6   8   6 207.964 14.6277   6
   6   8  -6 192.861 13.7842   6
   6   8  -6 188.947 15.0664   1
   6   8  -6 187.376 10.4773   3
  -6   8   6 233.245 15.4065   4
   4  -8  -6 663.040 22.1164   5
   4  -8  -6 622.245 19.7224   6
  -4  -8   6 684.974 24.4093   2
   4   8  -6 643.971 19.1874   3
   4   8  -6 655.184 22.0514   6
  -4   8   6 666.760 22.9349   6
  -4   8   6 683.946 24.4466   4
   4   8  -6 680.060 26.0447   1
   2  -8  -6 515.209 18.8680   5
  -2  -8   6 471.893 20.3083   2
   2  -8  -6 510.252 18.7595   6
   2   8  -6 514.768 18.6995   6
   2   8  -6 521.280 23.1069   1
  -2   8   6 520.223 19.6935   6
  -2   8   6 560.384 28.5529   6
  -2   8   6 513.103 21.3157   4
   0  -8  -6 37.6179 8.09173   6
   0  -8   6 36.6933 7.97395   2
   0  -8  -6 55.8431 8.29123   6
   0  -8  -6 41.3465 7.54713   5
   0  -8   6 31.0938 5.94528   4
   0   8   6 41.0089 8.62688   6
   0   8  -6 47.8297 7.08354   4
   0   8   6 51.6083 8.48828   6
   0   8  -6 39.0834 5.57910   3
   0   8   6 43.4988 8.82351   4
   0   8  -6 56.2389 7.43753   6
   0   8  -6 36.8636 9.91733   1
   2  -8   6 9.77769 7.30439   2
  -2  -8  -6 16.9790 7.08862   6
  -2  -8  -6 -0.7175 6.58880   6
   2  -8   6 11.8387 4.95625   4
  -2  -8  -6 2.84569 5.20765   5
  -2   8  -6 13.3897 8.91903   1
   2   8   6 3.76828 6.33622   6
  -2   8  -6 5.14632 7.00399   3
   2   8   6 -2.3128 6.27756   4
  -2   8  -6 10.5568 5.05218   4
   2   8   6 12.2382 6.36685   6
  -2   8  -6 11.3567 5.26415   6
  -4  -8  -6 26.7752 5.54915   5
   4  -8   6 4.72922 7.20221   2
  -4  -8  -6 6.87459 7.28184   6
   4   8   6 10.4788 6.34687   6
  -4   8  -6 12.9656 9.06242   1
   4   8   6 -2.2382 5.44814   6
  -4   8  -6 21.3882 5.14099   4
  -4   8  -6 9.70194 4.68503   6
   4   8   6 12.9969 7.13619   4
  -4   8  -6 20.9315 5.86012   3
  -6  -8  -6 229.474 9.72659   5
  -6  -8  -6 260.119 16.3297   6
   6  -8   6 194.897 15.3941   2
   6   8   6 256.246 11.6487   6
   6   8   6 231.880 12.4971   6
   6   8   6 227.168 15.1925   4
  -6   8  -6 214.769 18.4992   1
 -15  -9   6 7.57538 6.53181   6
 -15  -9   6 14.0655 7.80996   3
  15  -9  -6 15.3309 3.66354   2
  15   9  -6 20.2461 6.72985   1
 -15   9   6 11.3621 6.17468   6
  15   9  -6 8.63029 6.97079   6
  13  -9  -6 89.9833 12.3751   5
 -13  -9   6 101.442 11.3421   6
  13  -9  -6 88.4747 6.54559   2
  13  -9  -6 71.0984 8.97876   3
 -13  -9   6 102.893 9.86022   6
 -13  -9   6 98.6285 12.2500   2
 -13  -9   6 74.8762 10.3772   3
 -13   9   6 81.8491 12.1392   4
  13   9  -6 111.447 12.4917   6
  13   9  -6 99.5946 10.9613   6
 -13   9   6 93.7132 11.0791   6
  13   9  -6 109.039 12.6209   1
 -11  -9   6 101.721 10.5042   3
 -11  -9   6 96.5241 9.30589   6
  11  -9  -6 95.8685 12.6232   5
 -11  -9   6 76.7145 9.38024   6
 -11  -9   6 71.3541 10.9575   2
  11  -9  -6 74.3954 8.10776   3
  11  -9  -6 94.0368 7.49758   2
  11   9  -6 85.0821 11.7031   6
 -11   9   6 98.7481 12.3042   4
  11   9  -6 87.6551 10.9649   1
 -11   9   6 93.2786 11.0435   6
   9  -9  -6 10.7157 4.75157   3
   9  -9  -6 -1.0924 6.53557   5
  -9  -9   6 9.16372 6.02189   3
  -9  -9   6 3.17330 5.21969   6
   9  -9  -6 7.67145 4.18505   2
  -9  -9   6 15.1103 9.26682   6
  -9  -9   6 10.1525 6.89083   2
  -9   9   6 6.29479 7.27897   4
   9   9  -6 19.3625 7.65959   6
   9   9  -6 0.38516 6.31079   1
  -9   9   6 10.8946 7.15120   6
   7  -9  -6 44.8473 9.93022   5
  -7  -9   6 42.7261 5.97287   6
  -7  -9   6 39.1399 5.46217   6
   7  -9  -6 34.4285 6.38197   3
  -7  -9   6 42.3840 8.51471   2
  -7  -9   6 39.9596 7.27467   3
   7   9  -6 27.3735 8.28945   1
  -7   9   6 44.7984 9.42054   4
   7   9  -6 39.5844 8.66196   6
  -7   9   6 48.4731 9.73823   6
  -5  -9   6 137.095 12.9620   2
   5  -9  -6 128.442 8.56452   6
   5  -9  -6 107.937 12.0123   5
  -5  -9   6 121.843 9.84979   3
   5  -9  -6 120.038 9.20310   6
   5   9  -6 138.378 9.09395   3
  -5   9   6 128.234 13.0394   6
   5   9  -6 135.130 12.7424   6
   5   9  -6 142.600 14.5143   1
  -5   9   6 148.999 14.1974   4
  -3  -9   6 237.337 16.1982   2
   3  -9  -6 261.954 15.9021   6
   3  -9  -6 235.275 13.1153   6
   3  -9  -6 247.275 14.5479   5
  -3   9   6 229.701 23.4802   6
   3   9  -6 243.693 14.4953   6
   3   9  -6 256.210 17.9365   1
  -3   9   6 252.891 17.1539   4
   1  -9  -6 196.695 14.4482   6
   1  -9  -6 158.861 11.1567   5
  -1  -9   6 163.771 14.6162   2
   1  -9  -6 176.297 13.1363   6
   1   9  -6 166.020 12.2500   6
   1   9  -6 167.038 11.6231   4
   1   9  -6 159.470 14.7687   1
   1   9  -6 156.644 8.70906   3
  -1   9   6 172.802 13.8414   6
  -1   9   6 153.893 13.3266   6
  -1   9   6 137.691 14.0105   4
  -1  -9  -6 6.91650 5.09803   5
  -1  -9  -6 -10.613 6.16748   6
  -1  -9  -6 20.8433 6.46295   6
   1  -9   6 7.68895 7.07170   2
   1   9   6 12.1689 7.88035   4
  -1   9  -6 2.94413 5.21324   6
  -1   9  -6 1.80825 3.41279   3
  -1   9  -6 1.29696 4.71528   4
   1   9   6 -3.7341 6.35317   6
  -1   9  -6 0.40769 8.01956   1
   1   9   6 -0.8757 6.82487   6
  -3  -9  -6 11.8764 8.04806   6
  -3  -9  -6 6.31611 5.39258   5
   3  -9   6 4.10800 7.16649   2
  -3  -9  -6 5.54357 7.04667   6
   3   9   6 12.6650 7.60341   4
   3   9   6 4.09093 6.66804   6
  -3   9  -6 -13.322 7.38041   1
  -3   9  -6 0.26524 4.79990   4
  -3   9  -6 -8.0625 6.65561   6
  -5  -9  -6 9.78234 4.63071   5
   5  -9   6 0.05570 6.37254   2
  -5  -9  -6 0.38885 7.47842   6
  -5   9  -6 10.2052 5.12029   4
   5   9   6 13.3804 6.64306   6
  -5   9  -6 0.75628 8.90786   1
   5   9   6 -0.5204 6.82553   4
 -12 -10   6 10.3200 6.33354   3
 -12 -10   6 16.4652 10.1648   2
  12 -10  -6 7.12335 14.7549   5
  12 -10  -6 10.3840 4.23806   2
 -12 -10   6 17.6760 8.35870   6
 -12  10   6 2.22015 9.62130   4
 -12  10   6 3.10330 8.75461   6
  12  10  -6 14.7155 7.76199   6
  12  10  -6 12.2250 7.23166   1
 -10 -10   6 15.9639 7.71363   2
 -10 -10   6 16.5056 6.49499   3
  10 -10  -6 5.94047 8.13774   5
  10 -10  -6 15.7410 5.05333   2
 -10 -10   6 26.7435 5.72205   6
 -10 -10   6 22.0638 6.24279   6
  10  10  -6 27.6212 12.4359   1
  10  10  -6 14.2196 7.02806   6
 -10  10   6 26.2266 8.47255   6
 -10  10   6 29.9184 9.83976   4
   8 -10  -6 -0.2866 7.65213   5
   8 -10  -6 6.37245 4.76788   2
  -8 -10   6 12.8505 6.28126   6
  -8 -10   6 11.8204 5.26468   3
  -8 -10   6 7.95685 4.41713   6
  -8 -10   6 7.70024 7.86551   2
   8 -10  -6 -8.7262 4.54740   3
   8  10  -6 -2.1721 7.05218   1
  -8  10   6 9.26099 6.73969   6
  -8  10   6 -0.8062 8.14091   4
  -6 -10   6 7.28099 5.22661   3
   6 -10  -6 12.8419 3.54731   6
  -6 -10   6 12.4283 7.29268   2
   6 -10  -6 17.3274 8.07199   5
   6  10  -6 25.2940 7.65801   6
  -6  10   6 21.3334 7.84459   6
  -6  10   6 5.32722 8.16558   4
   6  10  -6 -2.9136 7.18637   1
   4 -10  -6 6.05582 4.02472   6
   4 -10  -6 5.77336 6.85723   5
   4 -10  -6 -6.6520 4.50640   6
  -4 -10   6 -2.1405 6.19936   2
   4  10  -6 2.19810 6.52488   6
  -4  10   6 4.28296 7.30909   6
  -4  10   6 3.70026 8.06346   4
   4  10  -6 -4.9881 6.53993   1
   2 -10  -6 -1.1034 6.28124   5
  -2 -10   6 -3.5154 6.45214   2
   2 -10  -6 9.31949 6.53942   6
   2  10  -6 0.16705 6.94808   6
   2  10  -6 19.9160 8.94391   1
  -2  10   6 24.4315 9.88835   4
   2  10  -6 7.24273 6.06679   4
  -2  10   6 1.98286 6.76434   6
   0 -10  -6 12.4591 8.13980   6
   0 -10  -6 10.7166 6.35679   5
   0  10   6 23.7074 8.94971   4
   0  10   6 8.01891 7.67568   6
   0  10  -6 22.2903 7.11247   6
  -2 -10  -6 8.68805 5.56606   5
   2 -10   6 2.94101 7.56475   2
   2  10   6 17.4369 8.94464   4
  -2  10  -6 1.39546 5.46123   4
  -2  10  -6 17.2278 8.17260   1
   7 -11  -6 165.644 14.7859   5
   7 -11  -6 148.383 11.0474   2
  -7 -11   6 156.717 15.0310   2
  -7 -11   6 135.710 10.2817   3
  -7  11   6 151.799 20.2934   6
  -7  11   6 139.229 15.6279   4
   7  11  -6 160.141 13.2662   6
   7  11  -6 146.975 15.4914   1
   5 -11  -6 37.7716 9.56530   5
  -5 -11   6 51.5481 10.4249   2
   5  11  -6 50.9647 9.03341   6
  -5  11   6 37.3981 10.3367   4
  -5  11   6 35.0495 8.84885   6
   3 -11  -6 -0.8593 5.06166   6
   3 -11  -6 1.47491 6.70732   5
  -3 -11   6 2.90884 6.53484   2
   3  11  -6 22.6882 7.47533   6
   3  11  -6 8.28866 6.32142   4
  -3  11   6 -5.7749 7.17161   6
   3  11  -6 4.12042 7.96157   1
  -3  11   6 10.9070 9.48748   4
  24   0  -7 -2.5607 5.74076   5
 -22   0   7 13.4327 5.93746   6
 -22   0   7 -4.0364 3.48800   1
 -22   0   7 0.52680 3.11298   2
 -22   0   7 -5.6950 7.04698   3
  22   0  -7 0.02805 6.22602   5
 -20   0   7 -1.4261 6.87861   3
 -20   0   7 -6.9206 2.73734   2
  20   0  -7 12.9854 7.81121   5
 -20   0   7 2.58827 5.35410   6
 -18   0   7 -4.4425 5.49415   3
 -18   0   7 -1.9858 5.21356   6
 -18   0   7 0.53855 3.97023   1
  18   0  -7 -2.5710 6.71753   5
  16   0  -7 -0.9277 5.16817   1
 -16   0   7 -2.5659 6.45228   3
 -16   0   7 2.22308 5.54615   6
 -16   0   7 0.23067 2.60958   2
 -16   0   7 -3.2628 4.27591   1
  16   0  -7 5.77724 6.83044   5
  14   0  -7 0.29942 3.84737   6
 -14   0   7 -1.4878 4.57753   1
 -14   0   7 2.34548 5.12918   6
 -14   0   7 -5.0193 5.50387   3
  14   0  -7 1.75749 5.25101   1
  14   0  -7 2.94196 3.94482   6
  14   0  -7 -0.3418 3.57862   6
 -14   0   7 -0.4623 2.52218   2
 -12   0   7 -9.1262 3.80596   1
 -12   0   7 -2.2368 2.34952   2
 -12   0   7 -0.1958 4.87471   6
  12   0  -7 -1.4903 5.27982   1
  12   0  -7 -3.5102 6.08705   6
 -12   0   7 -2.6038 4.84531   3
  12   0  -7 2.67545 4.25393   6
 -12   0   7 -2.3684 4.19539   6
  10   0  -7 -1.9416 5.16453   1
 -10   0   7 1.02729 2.72813   2
 -10   0   7 -2.7737 4.64450   6
 -10   0   7 -3.8724 3.97010   6
 -10   0   7 -0.1830 4.80130   3
  10   0  -7 -2.6715 4.45816   6
 -10   0   7 -0.1188 4.68788   1
  10   0  -7 -4.4329 3.97837   6
   8   0  -7 3.77020 4.91029   6
  -8   0   7 -3.7776 2.96580   2
   8   0  -7 -0.9778 5.47342   1
   8   0  -7 -1.5107 4.10183   6
  -8   0   7 4.07840 5.28375   3
  -8   0   7 -1.6033 4.44426   6
  -8   0   7 -6.0623 4.69283   1
  -8   0   7 -2.3949 4.29629   6
  -6   0   7 -3.4676 3.43854   2
   6   0  -7 -0.7952 3.09112   2
  -6   0   7 -2.2966 5.42432   3
   6   0  -7 6.39220 4.45130   6
  -6   0   7 -1.4343 3.37782   4
  -6   0   7 1.05724 4.27710   6
   6   0  -7 -7.3118 4.58189   6
   6   0  -7 -7.9430 5.11142   1
   4   0  -7 -0.3477 5.42911   6
   4   0  -7 2.98551 4.91417   6
  -4   0   7 -2.4864 3.65368   2
  -4   0   7 -0.7755 4.10646   6
   4   0  -7 1.36098 5.50584   1
  -4   0   7 -3.4707 3.50737   6
  -4   0   7 -1.9457 2.95676   4
   4   0  -7 -0.0817 3.65492   2
  -2   0   7 -1.7384 2.62870   4
   2   0  -7 -3.1209 5.72618   1
  -2   0   7 -0.6868 3.83209   6
   2   0  -7 -0.9573 4.67399   6
  -2   0   7 -3.9796 4.22226   2
  -2   0   7 4.15488 3.82204   6
   2   0  -7 -1.0571 4.19461   6
   2   0  -7 1.09999 4.09772   2
   0   0   7 1.20188 5.09786   2
   0   0  -7 -0.7549 4.65030   6
   0   0  -7 3.70993 5.86749   1
  -2   0  -7 -8.1479 5.11394   1
  -2   0  -7 -0.4770 4.92981   6
  -4   0  -7 2.13165 6.97373   1
  -6   0  -7 -2.5722 6.61930   1
  -6   0  -7 4.80966 5.37168   6
  -8   0  -7 -8.6398 4.50095   6
  -8   0  -7 -1.0813 7.69303   1
 -10   0  -7 -2.5952 6.00759   1
 -10   0  -7 13.0670 6.61666   6
 -23  -1   7 0.81382 5.41649   6
 -23  -1   7 -6.8205 7.31338   3
  23  -1  -7 1.82633 6.07375   5
 -23   1   7 13.4568 5.64284   6
 -23   1   7 0.12536 7.23370   3
  23   1  -7 15.4526 6.82077   5
  21  -1  -7 54.1104 9.01880   5
 -21  -1   7 46.1600 5.55665   1
 -21  -1   7 46.5023 10.1276   3
 -21  -1   7 43.5767 7.96031   6
  21   1  -7 48.0965 8.53261   5
 -21   1   7 57.3154 4.99406   2
 -21   1   7 35.8195 6.00764   1
 -21   1   7 38.7742 9.52061   3
 -21   1   7 56.3770 8.03387   6
 -19  -1   7 357.257 18.1074   3
 -19  -1   7 346.021 13.3403   1
 -19  -1   7 334.131 15.3816   6
 -19   1   7 354.932 8.63832   2
  19   1  -7 338.598 16.1351   5
 -19   1   7 366.018 18.6690   3
 -19   1   7 336.024 14.3211   1
 -19   1   7 350.014 14.8401   6
 -17  -1   7 493.612 23.0575   1
  17  -1  -7 527.021 19.3453   5
 -17  -1   7 494.628 20.8456   3
 -17  -1   7 497.382 18.1630   6
 -17   1   7 541.786 23.7870   3
  17   1  -7 522.240 17.7136   1
 -17   1   7 478.084 17.6923   1
 -17   1   7 505.124 17.7745   6
 -15  -1   7 132.997 12.7934   3
  15  -1  -7 127.685 12.1559   5
 -15  -1   7 138.472 7.40291   2
 -15  -1   7 123.070 10.6353   6
 -15  -1   7 124.160 9.64014   1
  15   1  -7 127.616 7.94748   6
  15   1  -7 147.332 11.1953   1
  15   1  -7 124.692 7.81374   6
 -15   1   7 144.053 10.5447   6
  15   1  -7 136.207 7.66718   6
 -15   1   7 120.469 12.2079   3
 -15   1   7 136.483 10.2271   1
 -13  -1   7 36.3369 4.62594   2
 -13  -1   7 36.1304 6.44550   1
  13  -1  -7 35.4661 5.33858   6
 -13  -1   7 35.9397 6.72522   6
  13  -1  -7 34.2398 7.13230   1
  13  -1  -7 31.0246 4.93931   6
 -13  -1   7 29.3404 7.49045   3
 -13   1   7 24.7656 6.06867   1
 -13   1   7 33.7511 7.78651   3
  13   1  -7 31.5028 6.89136   1
 -13   1   7 25.7723 6.08076   6
  13   1  -7 27.5029 5.51231   6
 -11  -1   7 973.268 27.3038   3
  11  -1  -7 978.602 23.2220   6
 -11  -1   7 992.162 21.5321   2
  11  -1  -7 987.094 24.7977   6
  11  -1  -7 1014.38 27.6929   1
  11  -1  -7 1011.63 23.6943   6
 -11  -1   7 941.594 24.6757   6
 -11  -1   7 947.920 26.0809   1
 -11  -1   7 982.626 25.2370   6
  11   1  -7 969.196 24.2144   6
  11   1  -7 1008.32 24.4159   6
 -11   1   7 930.988 26.5354   1
  11   1  -7 1000.12 27.3116   1
 -11   1   7 938.200 24.9234   6
 -11   1   7 972.891 27.1820   3
  -9  -1   7 2281.66 46.6172   6
   9  -1  -7 2335.96 46.0749   6
  -9  -1   7 2328.66 49.9094   3
   9  -1  -7 2430.49 50.8650   1
  -9  -1   7 2252.95 49.1550   1
  -9  -1   7 2264.92 46.3513   6
   9  -1  -7 2271.09 45.4198   6
  -9  -1   7 2253.88 43.4421   2
  -9   1   7 2412.46 47.6316   6
   9   1  -7 2368.23 50.1531   1
  -9   1   7 2269.51 46.5357   6
   9   1  -7 2340.95 46.6845   6
  -9   1   7 2339.62 46.9293   4
   9   1  -7 2292.33 46.2136   6
  -9   1   7 2239.68 49.9896   1
  -9   1   7 2377.23 49.9395   3
  -7  -1   7 1053.19 23.7287   2
  -7  -1   7 1034.29 24.9448   6
   7  -1  -7 995.932 24.8009   6
   7  -1  -7 1031.79 25.3042   6
  -7  -1   7 1008.28 28.1132   1
  -7  -1   7 1048.56 27.9811   3
  -7  -1   7 1072.06 29.3494   6
   7  -1  -7 993.764 21.4336   2
   7  -1  -7 1007.44 28.3779   1
   7   1  -7 1014.61 23.3558   2
  -7   1   7 1032.97 24.5993   4
  -7   1   7 997.849 24.9613   6
   7   1  -7 1013.91 25.0632   6
   7   1  -7 1007.23 28.0093   1
  -7   1   7 1043.12 27.8670   3
  -7   1   7 1006.10 25.3332   6
   7   1  -7 1022.25 25.2475   6
  -5  -1   7 80.2134 7.20546   6
   5  -1  -7 82.3622 8.82463   6
  -5  -1   7 81.0044 7.53473   6
   5  -1  -7 76.9369 6.58262   2
   5  -1  -7 80.7741 8.30194   6
   5  -1  -7 66.4192 8.83383   1
  -5   1   7 81.6285 12.2441   6
   5   1  -7 72.8275 8.54275   6
  -5   1   7 78.1357 6.98065   4
   5   1  -7 73.5569 9.26265   1
  -5   1   7 90.6733 8.36646   6
   5   1  -7 65.4266 6.43949   2
  -3  -1   7 100.728 5.52414   4
   3  -1  -7 96.1187 8.89590   6
  -3  -1   7 108.977 7.03371   6
   3  -1  -7 107.260 9.77526   6
  -3  -1   7 95.4385 8.39000   2
   3  -1  -7 103.698 7.61249   2
   3  -1  -7 100.268 10.1699   1
  -3   1   7 104.829 8.15931   6
   3   1  -7 104.479 10.3194   1
  -3   1   7 102.362 6.65254   4
   3   1  -7 85.4199 8.86152   6
  -3   1   7 95.1524 7.60943   6
   3   1  -7 102.841 8.27587   2
   3   1  -7 105.008 8.68108   6
   1  -1  -7 346.829 14.3036   6
  -1  -1   7 340.263 14.1271   2
   1  -1  -7 312.390 13.0483   2
   1  -1  -7 318.983 15.7686   1
  -1   1   7 330.163 11.0331   6
   1   1  -7 322.294 13.4109   6
  -1   1   7 332.824 9.77313   4
   1   1  -7 338.816 13.9006   2
  -1   1   7 341.992 11.3522   6
   1   1  -7 346.882 16.2427   1
  -1  -1  -7 362.186 17.6218   1
  -1  -1  -7 360.010 15.0635   6
   1  -1   7 392.239 16.1992   2
   1   1   7 364.111 9.04363   4
  -1   1  -7 355.174 13.9372   6
  -1   1  -7 370.616 17.3182   1
  -3  -1  -7 680.784 23.6420   1
  -3  -1  -7 612.242 19.7561   6
   3  -1   7 621.612 21.8607   2
  -3   1  -7 593.763 18.2438   6
  -3   1  -7 600.885 22.9648   1
  -5  -1  -7 434.440 16.5978   6
  -5  -1  -7 440.488 19.7669   1
  -5   1  -7 461.484 20.3069   1
  -5   1  -7 413.085 15.0396   6
  -7  -1  -7 44.6766 9.02268   1
  -7  -1  -7 47.8736 10.9948   6
  -7   1  -7 40.2013 12.7971   1
  -7   1  -7 40.8939 6.51808   6
  -9  -1  -7 -8.1204 6.78220   1
  -9  -1  -7 7.44940 5.65015   6
  -9   1  -7 -6.7607 6.23725   1
  -9   1  -7 5.39732 4.69833   6
 -11  -1  -7 30.7925 8.39220   1
 -11   1  -7 17.7739 7.99740   1
  24  -2  -7 7.82955 7.52728   5
 -24  -2   7 1.27210 7.43354   3
 -24  -2   7 8.19657 9.60932   6
  24   2  -7 13.5185 6.29800   5
 -24   2   7 -3.9250 7.59686   3
 -24   2   7 5.57650 7.24728   4
  22  -2  -7 14.0084 7.07703   5
 -22  -2   7 22.3304 8.44001   6
 -22  -2   7 15.0619 3.61444   1
 -22  -2   7 7.17131 7.51343   3
  22   2  -7 11.8276 6.79140   5
 -22   2   7 5.18994 7.45741   3
 -22   2   7 5.79630 6.92303   4
 -20  -2   7 17.5063 4.58877   1
 -20  -2   7 8.05661 8.37444   6
  20  -2  -7 17.7322 7.43057   5
 -20  -2   7 12.7135 8.41611   3
 -20   2   7 18.0416 7.65446   4
 -20   2   7 12.5070 6.77185   3
 -20   2   7 24.0360 6.13519   6
  20   2  -7 22.2804 6.94897   5
 -18  -2   7 110.342 8.36197   1
  18  -2  -7 113.340 11.9101   5
 -18  -2   7 129.447 12.3142   3
 -18   2   7 97.0467 11.4434   4
 -18   2   7 129.136 10.1383   6
 -18   2   7 94.5954 12.2770   3
  18   2  -7 108.916 9.70969   1
 -16  -2   7 27.4300 7.01465   6
  16  -2  -7 30.2373 7.96149   5
 -16  -2   7 25.2645 6.10364   1
 -16   2   7 21.8656 6.93340   3
  16   2  -7 16.4181 4.71316   6
 -16   2   7 21.7840 11.1540   4
  16   2  -7 21.2307 6.14453   1
  16   2  -7 17.6868 4.69525   6
 -16   2   7 23.2657 6.20491   6
 -14  -2   7 37.2184 6.21540   1
 -14  -2   7 32.3882 5.17518   2
  14  -2  -7 22.3946 7.23323   5
 -14  -2   7 41.7225 8.47296   3
 -14  -2   7 27.9725 6.77620   6
  14   2  -7 35.2968 6.16954   6
 -14   2   7 25.8166 6.62297   6
 -14   2   7 27.9194 7.00679   3
 -14   2   7 32.5029 7.40877   4
  14   2  -7 32.2086 6.76884   1
  12  -2  -7 291.965 14.4791   5
  12  -2  -7 284.239 10.0857   6
 -12  -2   7 275.307 13.0721   6
 -12  -2   7 293.875 11.0151   2
 -12  -2   7 301.795 13.7843   1
  12  -2  -7 296.239 10.7214   6
  12  -2  -7 278.520 15.0095   1
 -12  -2   7 290.419 14.7609   3
  12   2  -7 279.461 12.4864   6
 -12   2   7 299.832 14.1376   4
  12   2  -7 290.922 12.1609   6
 -12   2   7 298.257 13.3621   6
  12   2  -7 291.534 14.2761   1
 -12   2   7 290.286 14.3327   3
 -10  -2   7 679.778 21.6202   1
 -10  -2   7 678.738 20.1782   6
  10  -2  -7 703.788 23.0478   1
  10  -2  -7 695.500 18.4257   6
 -10  -2   7 711.960 18.3647   2
 -10  -2   7 704.309 22.6774   3
  10  -2  -7 672.947 18.4854   6
 -10  -2   7 682.301 20.0598   6
  10   2  -7 704.193 20.4348   6
  10   2  -7 684.208 19.7438   6
  10   2  -7 740.984 22.7604   1
 -10   2   7 689.954 20.2742   6
 -10   2   7 705.857 22.3780   3
 -10   2   7 690.779 20.8524   4
 -10   2   7 691.543 20.2411   6
  -8  -2   7 234.118 11.1581   6
  -8  -2   7 234.384 11.4869   6
   8  -2  -7 219.989 12.4760   6
   8  -2  -7 233.402 11.8328   6
  -8  -2   7 263.226 10.8554   2
  -8  -2   7 239.797 15.5614   1
  -8  -2   7 243.881 13.8343   3
   8  -2  -7 242.691 14.6044   1
   8  -2  -7 228.204 11.2817   6
   8  -2  -7 238.106 7.43594   2
  -8   2   7 232.546 12.0127   6
  -8   2   7 242.692 12.9473   3
  -8   2   7 233.991 11.7674   6
   8   2  -7 227.725 11.9465   6
   8   2  -7 235.577 13.8917   1
   8   2  -7 227.394 11.3627   6
  -8   2   7 242.259 11.7827   4
   6  -2  -7 5.35148 5.49825   6
  -6  -2   7 12.8019 4.68042   6
  -6  -2   7 8.13146 4.52095   2
  -6  -2   7 8.93091 6.39894   3
   6  -2  -7 15.6740 3.75924   2
   6  -2  -7 1.54656 5.32165   6
   6  -2  -7 4.26332 4.91732   6
  -6  -2   7 4.30751 4.27057   6
   6  -2  -7 9.02499 5.96962   1
  -6   2   7 6.56305 4.98565   6
   6   2  -7 8.56474 6.09289   1
   6   2  -7 7.67343 5.41164   6
  -6   2   7 15.0028 5.82460   6
   6   2  -7 12.8832 4.52801   2
   4  -2  -7 371.254 14.8277   6
   4  -2  -7 358.903 14.1038   6
  -4  -2   7 387.091 11.8847   6
  -4  -2   7 367.082 14.0690   2
   4  -2  -7 357.799 16.6216   1
   4  -2  -7 369.141 12.3339   2
  -4  -2   7 356.789 10.7850   4
  -4  -2   7 389.040 16.5853   6
   4   2  -7 365.021 13.5485   2
   4   2  -7 399.877 16.9443   1
  -4   2   7 366.657 12.5557   4
  -4   2   7 362.384 13.9141   6
   4   2  -7 373.211 14.3012   6
   4   2  -7 356.513 13.8383   6
  -4   2   7 359.963 17.7687   6
  -2  -2   7 181.049 10.8464   2
   2  -2  -7 174.825 10.8215   6
   2  -2  -7 185.118 14.9872   6
  -2  -2   7 181.257 5.83291   4
   2  -2  -7 159.885 12.0828   1
  -2  -2   7 167.104 5.91993   4
  -2   2   7 177.154 9.51253   6
   2   2  -7 168.417 12.5283   1
  -2   2   7 170.035 8.45356   4
   2   2  -7 167.511 10.0815   2
   2   2  -7 172.621 10.3034   6
  -2   2   7 171.798 9.63994   6
   0  -2  -7 23.7354 7.80606   1
   0  -2  -7 22.8917 5.77808   2
   0  -2   7 23.3502 6.52880   2
   0  -2  -7 11.8410 6.14836   6
   0   2   7 17.3956 4.10466   4
   0   2  -7 12.9283 7.37267   1
   0   2   7 19.0332 4.94784   6
   0   2  -7 28.7878 6.10819   6
   0   2   7 15.8227 4.56657   6
  -2  -2  -7 21.0137 7.08822   1
   2  -2   7 16.6407 7.11129   2
  -2  -2  -7 26.8468 7.34218   6
   2   2   7 31.3790 4.25875   4
  -2   2  -7 40.6339 8.78031   1
  -2   2  -7 31.5599 6.27470   6
   4  -2   7 81.0116 11.1862   2
  -4  -2  -7 103.331 11.8844   1
  -4  -2  -7 107.666 10.6097   6
  -4   2  -7 109.857 12.6596   1
  -4   2  -7 105.216 8.86095   6
  -6  -2  -7 263.735 14.2569   6
  -6  -2  -7 280.315 11.2480   4
  -6  -2  -7 275.483 16.0767   1
   6  -2   7 255.261 15.7275   2
  -6   2  -7 263.409 11.9626   6
  -8  -2  -7 61.7898 9.92108   1
  -8  -2  -7 49.5917 8.49972   6
  -8   2  -7 67.1351 10.2853   1
  -8   2  -7 72.8648 7.45256   6
 -10  -2  -7 8.69426 6.73690   6
 -10  -2  -7 10.9063 6.62754   6
 -10   2  -7 0.31871 6.78347   1
 -23  -3   7 21.7867 7.21011   6
  23  -3  -7 27.7228 8.82137   5
 -23  -3   7 29.1973 11.6672   3
  23   3  -7 24.7057 7.08485   5
 -23   3   7 31.3298 14.7320   4
 -23   3   7 12.2325 7.67268   3
 -21  -3   7 12.7546 3.74190   1
 -21  -3   7 19.7377 7.18673   6
 -21  -3   7 3.57960 7.06266   3
  21  -3  -7 10.2967 7.70288   5
 -21   3   7 10.2364 7.02730   3
 -21   3   7 9.62578 7.20667   4
 -21   3   7 31.9482 5.74917   6
  21   3  -7 13.8876 6.72054   5
 -19  -3   7 128.533 8.31673   1
  19  -3  -7 145.621 12.2816   5
 -19  -3   7 143.817 12.9245   3
 -19  -3   7 136.649 11.9445   6
 -19   3   7 147.095 13.4915   6
 -19   3   7 115.890 12.2300   3
 -19   3   7 126.323 12.4743   4
 -17  -3   7 479.541 21.1909   3
 -17  -3   7 455.045 18.3245   6
  17  -3  -7 469.184 19.4422   5
 -17   3   7 491.408 20.0270   3
 -17   3   7 494.195 20.6466   4
  17   3  -7 494.453 14.4507   6
  17   3  -7 504.691 17.4711   1
 -17   3   7 471.984 16.6659   6
  17   3  -7 479.435 14.0711   6
 -15  -3   7 11.7114 5.04834   2
 -15  -3   7 11.0742 7.70368   3
  15  -3  -7 12.7694 7.90453   5
 -15  -3   7 14.6195 4.99441   1
 -15  -3   7 12.6851 6.15911   6
  15   3  -7 6.75882 5.71183   1
 -15   3   7 11.6011 5.69434   6
 -15   3   7 11.3914 6.21260   4
 -15   3   7 11.4082 5.97656   3
 -13  -3   7 -3.3169 4.67581   6
  13  -3  -7 -0.8990 5.50323   5
 -13  -3   7 -1.1147 5.48948   6
 -13  -3   7 1.27139 5.45384   3
 -13  -3   7 3.79260 4.61867   1
 -13  -3   7 4.98495 4.45348   2
  13   3  -7 2.62391 5.45743   1
 -13   3   7 2.68892 5.29662   6
 -13   3   7 3.45500 5.62407   4
 -13   3   7 1.17885 5.25895   3
  13   3  -7 1.30973 4.29725   6
  13   3  -7 2.55753 5.17849   6
  11  -3  -7 125.825 7.43912   6
  11  -3  -7 135.089 11.5148   5
 -11  -3   7 116.810 10.0957   6
  11  -3  -7 119.511 7.85969   6
 -11  -3   7 110.243 9.58084   6
 -11  -3   7 117.138 8.71695   2
 -11  -3   7 122.516 9.84879   1
 -11  -3   7 113.339 10.4497   3
  11   3  -7 123.053 10.0426   6
  11   3  -7 139.513 10.9418   1
 -11   3   7 115.809 10.8981   3
 -11   3   7 112.949 10.4770   4
  11   3  -7 127.415 9.38564   6
 -11   3   7 106.340 9.62630   6
  -9  -3   7 809.141 22.2198   6
   9  -3  -7 845.332 26.2967   1
  -9  -3   7 805.058 21.9358   6
  -9  -3   7 819.681 21.6165   2
   9  -3  -7 826.942 20.9409   6
   9  -3  -7 873.525 25.3277   5
   9  -3  -7 819.449 21.2057   6
  -9  -3   7 818.169 24.4308   3
   9   3  -7 769.181 22.2971   6
  -9   3   7 810.588 22.8698   6
  -9   3   7 853.061 24.8149   3
   9   3  -7 856.834 25.4451   1
  -9   3   7 856.717 23.8136   4
  -7  -3   7 2207.20 44.2440   6
   7  -3  -7 2286.71 50.3146   1
  -7  -3   7 2234.12 44.2643   6
  -7  -3   7 2170.37 43.9226   4
   7  -3  -7 2254.53 45.3173   6
   7  -3  -7 2226.44 40.5063   2
  -7  -3   7 2315.78 45.9323   2
  -7  -3   7 2254.47 48.3129   3
   7   3  -7 2122.33 50.3519   6
   7   3  -7 2294.00 47.5407   6
   7   3  -7 2259.73 49.4967   1
  -7   3   7 2228.16 45.9251   4
  -7   3   7 2257.42 46.4597   6
  -7   3   7 2187.53 45.5958   6
  -5  -3   7 422.607 12.9089   6
   5  -3  -7 410.975 15.7049   6
   5  -3  -7 428.981 15.6777   6
  -5  -3   7 410.783 13.0352   6
  -5  -3   7 441.909 15.5710   2
   5  -3  -7 426.361 18.7694   1
  -5  -3   7 434.183 17.4083   3
  -5  -3   7 422.815 12.9230   4
   5  -3  -7 421.949 12.7444   2
   5  -3  -7 431.682 15.6541   6
  -5   3   7 430.834 15.4824   6
  -5   3   7 415.776 15.8874   6
   5   3  -7 395.727 14.8168   2
  -5   3   7 411.372 14.6310   4
   5   3  -7 432.815 18.2621   1
   5   3  -7 429.482 15.1418   6
   5   3  -7 406.599 15.4013   6
   3  -3  -7 1.03041 6.60217   1
   3  -3  -7 1.60386 4.77771   6
   3  -3  -7 -0.3981 5.27950   6
   3  -3  -7 3.20082 3.80792   2
  -3  -3   7 2.09447 5.09009   2
   3  -3  -7 -1.5200 5.73192   6
  -3  -3   7 -1.4692 3.00425   4
  -3  -3   7 4.25279 2.74307   6
  -3  -3   7 5.17168 2.74385   6
  -3   3   7 -6.7528 4.73628   6
   3   3  -7 7.05739 4.96011   6
   3   3  -7 4.67784 5.78664   1
  -3   3   7 -1.8552 7.89459   6
  -3   3   7 2.78832 4.24159   4
  -1  -3   7 328.112 14.9866   2
   1  -3  -7 334.181 13.6918   2
   1  -3  -7 340.037 17.3914   1
   1  -3  -7 315.957 14.7740   6
   1  -3  -7 295.978 14.0784   6
   1  -3  -7 324.967 14.9535   6
   1  -3  -7 301.237 11.7429   4
   1   3  -7 276.685 16.3609   1
  -1   3   7 320.570 12.7457   6
   1   3  -7 307.690 12.8215   6
  -1   3   7 318.544 11.8921   4
  -1   3   7 305.342 12.7766   6
  -1  -3  -7 1101.47 24.8499   4
   1  -3   7 1138.44 30.8465   2
  -1  -3  -7 1150.39 32.1138   1
   1   3   7 1152.10 25.2581   4
  -1   3  -7 1068.77 26.1947   6
   1   3   7 1115.91 24.7023   6
   1   3   7 1110.83 24.8753   6
  -1   3  -7 1135.16 32.6106   1
  -3  -3  -7 1106.86 24.7035   4
  -3  -3  -7 1126.47 29.6538   6
  -3  -3  -7 1115.12 32.1665   1
  -3  -3  -7 1126.43 29.6717   6
   3   3   7 1110.75 24.7238   4
  -3   3  -7 1116.82 26.2979   6
  -3   3  -7 1181.89 34.4539   1
  -5  -3  -7 254.621 14.7188   6
  -5  -3  -7 271.710 16.2519   1
  -5  -3  -7 253.792 9.80012   4
  -5  -3  -7 250.620 14.7992   6
   5  -3   7 259.933 15.8135   2
  -5   3  -7 246.555 10.9553   6
  -5   3  -7 265.922 16.6058   1
   7  -3   7 -0.5152 6.28429   2
  -7  -3  -7 2.87999 6.37022   6
  -7  -3  -7 -2.3010 5.75380   6
  -7  -3  -7 -0.9731 6.45955   1
  -7  -3  -7 1.71341 3.41315   4
  -7   3  -7 -2.0651 6.74727   1
  -9  -3  -7 20.9978 7.68841   6
  -9  -3  -7 29.1612 8.43401   6
  -9   3  -7 15.5305 7.29628   1
 -11  -3  -7 26.5785 7.31959   1
 -11   3  -7 35.7978 9.22788   1
 -22  -4   7 -1.3968 5.47016   6
 -22  -4   7 7.49340 11.9053   3
  22  -4  -7 0.18497 7.29475   5
 -22   4   7 -3.5332 6.12032   3
  22   4  -7 0.29675 5.30455   5
  20  -4  -7 -1.1466 6.54619   5
 -20  -4   7 1.16884 6.03452   6
 -20  -4   7 -1.4754 7.24524   3
 -20   4   7 9.54364 5.05245   6
  20   4  -7 -4.8737 3.87437   1
 -20   4   7 1.70537 6.76795   3
 -20   4   7 6.51813 6.91171   4
 -18  -4   7 8.59683 7.18782   3
 -18  -4   7 -2.0425 5.81942   6
  18  -4  -7 9.24260 7.65355   5
  18   4  -7 -0.4036 4.12672   6
  18   4  -7 -3.3693 4.06565   6
 -18   4   7 0.26521 5.23824   6
 -18   4   7 -16.646 7.59122   3
  18   4  -7 -5.2147 4.39175   1
 -18   4   7 1.88173 6.54985   4
 -16  -4   7 100.338 10.7824   6
 -16  -4   7 85.4452 8.65376   1
  16  -4  -7 120.884 12.3583   5
 -16  -4   7 115.677 12.9340   3
  16   4  -7 108.809 10.0712   1
 -16   4   7 100.877 11.0709   4
  16   4  -7 92.4600 8.83883   6
 -16   4   7 119.255 10.2824   6
 -16   4   7 110.169 11.3426   3
 -14  -4   7 17.8601 6.04505   2
 -14  -4   7 15.5140 5.53438   1
 -14  -4   7 16.3284 6.02150   6
 -14  -4   7 25.4331 7.08956   6
 -14  -4   7 5.61672 6.02673   3
  14   4  -7 20.3145 5.67006   6
 -14   4   7 20.4157 5.86284   6
 -14   4   7 17.1982 6.91194   3
  14   4  -7 17.3709 6.14887   1
 -14   4   7 28.3192 8.57222   4
 -12  -4   7 21.4256 6.69957   6
 -12  -4   7 23.3801 6.10033   2
  12  -4  -7 19.9308 7.77154   5
 -12  -4   7 24.3906 6.08576   6
 -12  -4   7 15.6957 6.90486   3
  12   4  -7 18.6855 5.76011   6
  12   4  -7 17.8398 6.19086   6
 -12   4   7 18.8821 6.69320   3
 -12   4   7 17.8059 6.87652   4
  12   4  -7 21.1708 6.76795   1
 -12   4   7 19.8571 6.46724   6
 -10  -4   7 123.090 10.0539   6
 -10  -4   7 138.082 11.7499   3
 -10  -4   7 149.033 10.0182   6
  10  -4  -7 139.508 8.68766   6
 -10  -4   7 137.116 9.77161   2
  10  -4  -7 136.490 10.7896   6
  10  -4  -7 137.152 11.8681   5
  10   4  -7 140.771 10.5296   6
 -10   4   7 129.331 10.9836   3
  10   4  -7 133.069 11.5493   1
  10   4  -7 127.741 9.63991   6
 -10   4   7 133.306 11.0431   4
 -10   4   7 142.816 10.8025   6
  -8  -4   7 8.67600 5.16703   2
  -8  -4   7 15.1803 6.59651   3
   8  -4  -7 4.67152 5.95638   5
  -8  -4   7 11.1839 4.70801   6
   8  -4  -7 17.8266 5.79866   6
   8  -4  -7 7.52832 4.64080   6
  -8  -4   7 7.99892 4.92695   4
   8  -4  -7 8.25063 2.64265   2
  -8  -4   7 17.4681 5.23941   6
  -8   4   7 10.3535 5.81022   4
   8   4  -7 15.6630 6.01858   6
   8   4  -7 13.9691 5.39260   6
  -8   4   7 4.73223 5.60798   6
   8   4  -7 11.3460 6.11012   1
  -8   4   7 20.7472 6.38098   6
  -6  -4   7 658.021 17.3510   6
  -6  -4   7 677.723 18.6888   4
   6  -4  -7 680.677 16.6053   2
   6  -4  -7 662.478 21.0641   5
   6  -4  -7 705.831 20.5265   6
   6  -4  -7 667.298 19.8403   6
  -6  -4   7 683.872 17.8296   6
  -6  -4   7 719.212 22.1367   3
  -6  -4   7 675.613 20.9060   2
  -6   4   7 657.307 20.5112   4
   6   4  -7 674.475 20.6683   6
  -6   4   7 658.715 21.0198   6
  -6   4   7 674.690 20.5737   6
   6   4  -7 713.131 23.6544   1
   4  -4  -7 86.2281 8.59697   4
   4  -4  -7 101.354 10.4209   6
  -4  -4   7 100.099 5.72888   6
   4  -4  -7 109.372 12.5866   1
   4  -4  -7 101.080 9.42194   6
   4  -4  -7 87.4721 7.26530   2
  -4  -4   7 96.7700 7.11443   4
  -4  -4   7 99.6987 5.88720   6
  -4  -4   7 99.5156 9.86515   2
   4   4  -7 102.983 12.1204   1
  -4   4   7 108.481 9.92749   6
  -4   4   7 92.6808 9.95224   6
   4   4  -7 114.545 9.76157   6
  -4   4   7 97.0059 9.40613   4
   2  -4  -7 518.131 18.7491   6
   2  -4  -7 537.244 20.8068   1
  -2  -4   7 496.732 12.9590   4
   2  -4  -7 508.140 19.1186   4
   2  -4  -7 522.188 16.7422   2
  -2  -4   7 511.583 18.9813   2
   2   4  -7 501.018 16.8411   6
   2   4  -7 513.856 20.9227   1
  -2   4   7 478.619 17.1154   6
  -2   4   7 541.354 17.1649   4
   0  -4  -7 927.496 23.7169   4
   0  -4   7 888.021 26.8113   2
   0  -4  -7 935.542 26.4214   6
   0  -4  -7 940.965 29.2284   1
   0   4   7 937.619 23.8759   4
   0   4   7 924.767 23.7729   6
   0   4  -7 930.263 29.3412   1
   0   4   7 973.048 24.5223   6
  -2  -4  -7 -1.0396 5.98162   1
   2  -4   7 -8.0751 6.32040   2
  -2  -4  -7 -2.5455 6.60633   6
  -2  -4  -7 6.73475 6.68643   6
  -2  -4  -7 2.87766 4.23997   4
   2   4   7 1.84736 4.25616   6
  -2   4  -7 3.11518 4.95727   6
  -2   4  -7 5.80692 12.3954   1
   2   4   7 -0.2011 4.90824   4
   2   4   7 5.08652 5.20687   6
  -4  -4  -7 30.9060 8.21474   6
  -4  -4  -7 25.9704 5.13168   4
  -4  -4  -7 14.5933 7.55924   1
  -4  -4  -7 27.3425 7.85701   6
   4  -4   7 29.0857 7.49689   2
  -4   4  -7 32.4726 8.79170   1
   4   4   7 29.7582 5.97788   4
  -4   4  -7 31.9035 6.01619   6
   6  -4   7 -3.4330 6.35864   2
  -6  -4  -7 4.82517 8.11546   6
  -6  -4  -7 7.51124 6.45998   1
  -6  -4  -7 -6.7740 3.50065   4
  -6  -4  -7 -3.1854 7.41120   6
  -6   4  -7 0.36537 6.29896   1
   8  -4   7 32.3702 9.36957   2
  -8  -4  -7 34.5164 12.0677   6
  -8   4  -7 29.6553 8.83737   1
  -8   4  -7 40.1938 5.81482   6
  10  -4   7 6.18459 6.97982   2
 -10   4  -7 6.72299 7.71040   1
 -21  -5   7 15.1121 8.43908   3
 -21  -5   7 15.5678 7.15719   6
  21  -5  -7 16.7960 9.28428   5
 -21   5   7 6.49679 6.23139   3
  21   5  -7 9.37454 6.49745   5
 -21   5   7 14.4177 12.7304   4
  21   5  -7 8.61193 4.34038   1
  19  -5  -7 34.3046 9.87317   5
 -19  -5   7 37.9836 9.93079   3
 -19  -5   7 30.6733 7.88648   6
  19   5  -7 29.9218 5.93751   1
 -19   5   7 26.6826 8.03167   3
  19   5  -7 24.2735 5.12269   6
 -19   5   7 40.4330 7.21031   6
  19   5  -7 32.4812 5.74319   6
 -19   5   7 48.6874 10.2432   4
 -17  -5   7 -4.8704 5.73997   3
  17  -5  -7 -5.4913 6.48437   5
 -17  -5   7 -0.9911 3.91811   1
 -17  -5   7 2.39166 6.14572   6
  17   5  -7 1.34814 5.01112   1
 -17   5   7 -9.4590 5.04082   3
  17   5  -7 -5.3104 4.45681   6
 -17   5   7 2.57635 5.11352   6
 -17   5   7 -1.1919 5.75640   4
  17   5  -7 -1.9410 3.98254   6
  15  -5  -7 79.7839 10.5221   5
 -15  -5   7 80.1111 11.2443   3
 -15  -5   7 85.1136 12.2485   6
 -15  -5   7 94.4264 10.6126   6
 -15  -5   7 82.4679 9.61838   2
  15   5  -7 77.2587 8.99535   6
  15   5  -7 86.8734 8.68232   6
  15   5  -7 86.2162 9.73179   1
 -15   5   7 93.6969 10.7482   3
 -15   5   7 68.8159 9.77829   4
 -15   5   7 86.1085 9.60837   6
 -13  -5   7 3.19499 5.67453   6
 -13  -5   7 0.55737 6.72701   3
 -13  -5   7 -1.9722 4.88914   2
  13  -5  -7 -9.6022 6.31686   5
 -13  -5   7 10.8923 5.56957   6
  13   5  -7 3.09344 5.19417   1
 -13   5   7 6.07112 5.71126   3
 -13   5   7 4.58971 7.06568   4
 -13   5   7 1.58227 5.14243   6
  13   5  -7 3.78223 5.12376   6
  13   5  -7 -5.9140 8.66850   6
 -11  -5   7 1033.32 27.2460   6
  11  -5  -7 1043.24 21.6493   6
 -11  -5   7 1026.84 29.4262   3
 -11  -5   7 1076.36 27.5467   6
  11  -5  -7 1004.40 29.9394   5
 -11  -5   7 1064.63 28.4388   2
  11  -5  -7 1007.97 20.3151   6
  11   5  -7 1032.51 27.9648   6
 -11   5   7 1027.81 28.4620   3
 -11   5   7 1056.34 27.9636   6
  11   5  -7 1072.27 29.5837   1
 -11   5   7 1091.35 29.9917   4
  11   5  -7 993.703 27.1701   6
  -9  -5   7 606.236 20.8779   3
  -9  -5   7 575.280 18.0730   6
   9  -5  -7 555.275 16.1177   6
   9  -5  -7 552.833 20.3575   5
   9  -5  -7 542.307 11.9051   2
  -9  -5   7 547.162 19.1046   2
  -9  -5   7 568.226 17.7410   6
  -9   5   7 568.721 19.9824   6
   9   5  -7 552.117 19.0381   6
  -9   5   7 593.878 20.7930   4
   9   5  -7 566.656 21.4695   1
   9   5  -7 550.198 19.4876   6
  -7  -5   7 362.828 13.9009   4
  -7  -5   7 362.892 15.8619   3
   7  -5  -7 357.919 14.2804   6
   7  -5  -7 347.297 10.7240   2
   7  -5  -7 357.737 13.6602   6
  -7  -5   7 358.955 13.0065   6
   7  -5  -7 347.292 16.1849   5
  -7  -5   7 356.930 15.4274   2
   7   5  -7 354.774 16.9180   1
  -7   5   7 329.607 15.4340   6
  -7   5   7 354.965 16.1297   4
  -7   5   7 331.605 15.2275   6
   7   5  -7 366.911 15.6780   6
   5  -5  -7 1685.24 37.8470   6
  -5  -5   7 1675.35 32.2784   6
  -5  -5   7 1652.13 35.3896   4
   5  -5  -7 1673.27 38.9518   5
   5  -5  -7 1704.92 37.4768   6
  -5  -5   7 1676.32 32.2142   6
  -5  -5   7 1702.32 39.7565   2
   5  -5  -7 1698.26 34.7776   2
  -5  -5   7 1705.29 39.4848   3
  -5   5   7 1660.32 38.5219   6
   5   5  -7 1717.87 38.2942   6
   5   5  -7 1742.02 42.8340   1
  -5   5   7 1724.72 38.9763   6
  -5   5   7 1658.88 38.5549   4
  -3  -5   7 207.597 9.60002   4
  -3  -5   7 214.612 12.8985   2
   3  -5  -7 213.834 11.1408   2
   3  -5  -7 223.407 13.1711   6
   3  -5  -7 231.259 12.9284   6
   3  -5  -7 218.008 12.5478   5
   3   5  -7 238.389 15.9576   1
   3   5  -7 231.151 12.5862   6
  -3   5   7 222.361 13.1507   6
  -3   5   7 207.087 12.4232   6
  -3   5   7 212.782 12.3110   4
   1  -5  -7 573.141 18.9035   5
   1  -5  -7 550.860 19.5181   6
  -1  -5   7 582.430 21.3878   2
  -1  -5   7 573.465 14.5110   4
   1  -5  -7 575.638 20.5761   6
   1  -5  -7 583.673 18.8091   4
  -1   5   7 592.806 19.3873   4
   1   5  -7 575.957 18.4048   6
  -1   5   7 573.930 21.6862   6
  -1  -5  -7 650.775 20.0401   4
   1  -5   7 701.473 23.8520   2
   1  -5   7 700.837 14.3758   4
  -1  -5  -7 712.546 23.5439   6
  -1  -5  -7 706.723 20.9380   5
  -1   5  -7 717.936 26.5579   1
   1   5   7 692.590 21.0485   4
  -1   5  -7 706.134 20.1521   6
   1   5   7 712.312 20.4252   6
  -3  -5  -7 235.766 15.3274   6
  -3  -5  -7 223.078 11.8459   4
  -3  -5  -7 235.837 12.1694   5
   3  -5   7 248.913 15.1825   2
   3   5   7 247.575 12.8519   4
   3   5   7 238.095 10.7170   6
   3   5   7 243.176 10.3519   6
  -3   5  -7 236.535 11.0919   6
  -3   5  -7 251.618 16.8799   1
   5  -5   7 143.113 13.5150   2
  -5  -5  -7 100.862 8.83383   4
  -5  -5  -7 114.658 12.8629   6
  -5  -5  -7 116.564 9.10565   5
   5   5   7 125.801 10.0839   4
  -5   5  -7 112.014 13.4649   1
  -5   5  -7 132.385 8.24113   6
   7  -5   7 13.1959 7.81572   2
  -7  -5  -7 28.3524 8.67801   6
  -7  -5  -7 9.86414 5.05541   5
  -7   5  -7 26.5278 5.19554   6
  -7   5  -7 11.1962 7.75574   1
  -9  -5  -7 28.9785 8.74414   6
   9  -5   7 36.4508 10.2465   2
  -9  -5  -7 34.1910 5.01285   5
  -9   5  -7 40.7044 9.91166   1
 -20  -6   7 51.2194 10.5255   3
 -20  -6   7 85.6364 10.8166   6
  20  -6  -7 48.7497 10.0837   5
  20   6  -7 75.4992 10.5522   6
 -20   6   7 80.0514 10.1396   3
  20   6  -7 59.8034 7.12029   1
  20   6  -7 82.5275 7.69847   6
 -18  -6   7 39.5793 8.67320   6
  18  -6  -7 49.3760 10.9687   5
 -18  -6   7 43.1563 9.41640   3
  18   6  -7 58.7762 7.53171   1
 -18   6   7 48.7889 10.4293   4
  18   6  -7 49.8764 7.67351   6
 -18   6   7 51.6995 8.61584   6
  18   6  -7 64.3627 13.0811   6
 -18   6   7 47.1507 8.25732   3
  16  -6  -7 2.43135 6.64765   5
 -16  -6   7 9.23258 7.08804   3
 -16  -6   7 0.30074 6.28411   6
  16   6  -7 10.1668 5.80365   6
  16   6  -7 4.56557 5.21020   6
 -16   6   7 3.63787 5.66991   3
  16   6  -7 -6.8619 4.72717   1
 -16   6   7 29.7221 7.27119   6
 -16   6   7 13.1912 8.14088   4
 -14  -6   7 34.6290 7.85837   6
 -14  -6   7 48.3194 8.42916   2
  14  -6  -7 41.5488 8.98223   5
 -14  -6   7 34.8749 8.64099   3
 -14   6   7 48.5610 7.98896   6
 -14   6   7 50.0251 8.01982   3
  14   6  -7 45.5236 7.13187   6
 -14   6   7 26.3353 7.06980   4
  14   6  -7 35.5582 7.47227   6
  14   6  -7 44.7707 8.12846   1
 -12  -6   7 173.693 13.2474   3
 -12  -6   7 151.091 11.7052   2
  12  -6  -7 146.690 12.3732   5
 -12  -6   7 148.427 11.8781   6
 -12  -6   7 161.963 11.0098   6
  12   6  -7 155.739 11.3569   6
  12   6  -7 152.765 12.5687   1
 -12   6   7 147.649 13.6490   4
  12   6  -7 145.225 12.3005   6
 -12   6   7 149.137 12.0980   6
 -10  -6   7 135.865 9.76627   6
 -10  -6   7 165.015 12.3115   3
 -10  -6   7 161.611 11.7281   2
  10  -6  -7 151.567 5.16178   2
 -10  -6   7 148.615 10.7776   6
  10  -6  -7 141.315 14.1338   5
  10  -6  -7 138.914 5.25286   2
  10  -6  -7 155.754 7.10699   6
  10  -6  -7 140.611 7.19937   6
  10   6  -7 148.158 11.2776   6
  10   6  -7 155.428 12.8721   1
  10   6  -7 172.000 12.1590   6
 -10   6   7 169.093 20.6308   4
   8  -6  -7 26.1261 7.53802   5
   8  -6  -7 38.6160 7.09000   6
  -8  -6   7 37.9320 7.40299   2
  -8  -6   7 41.4127 8.08359   3
  -8  -6   7 33.6932 6.92966   6
  -8   6   7 33.4629 7.49482   6
   8   6  -7 41.7962 8.70540   1
   8   6  -7 34.3438 7.46684   6
  -8   6   7 29.6022 7.87503   4
  -6  -6   7 167.940 8.18248   6
  -6  -6   7 163.619 8.40375   6
   6  -6  -7 168.550 10.4582   6
  -6  -6   7 178.068 10.5392   4
  -6  -6   7 163.699 12.3986   2
  -6  -6   7 176.239 11.8686   3
   6  -6  -7 188.055 12.0159   5
  -6   6   7 175.071 12.7748   4
   6   6  -7 189.642 14.6117   6
  -6   6   7 180.889 12.6629   6
   6   6  -7 178.539 13.3979   1
  -6   6   7 171.465 12.8535   6
  -4  -6   7 75.7840 10.6261   2
   4  -6  -7 76.7562 9.80358   5
   4  -6  -7 83.6978 10.8313   6
   4  -6  -7 78.4953 9.05772   6
   4   6  -7 88.3318 10.2695   6
  -4   6   7 91.5280 12.8082   6
   4   6  -7 68.7319 11.9724   1
  -4   6   7 87.7004 10.0975   4
  -4   6   7 79.5732 9.92134   6
  -2  -6   7 223.593 10.1479   4
  -2  -6   7 232.842 14.6932   2
   2  -6  -7 229.958 13.9981   6
   2  -6  -7 246.499 13.1467   5
   2  -6  -7 242.977 13.5858   6
   2   6  -7 213.069 12.4670   6
  -2   6   7 228.891 13.6857   4
  -2   6   7 243.028 21.2577   6
  -2   6   7 245.322 13.4357   6
   2   6  -7 225.565 15.4528   1
   0  -6   7 97.9792 11.1616   2
   0  -6   7 125.065 6.95198   4
   0  -6  -7 94.9078 10.0382   5
   0  -6  -7 139.376 11.9976   6
   0  -6  -7 107.454 12.5295   6
   0   6  -7 135.938 14.7631   6
   0   6  -7 111.843 12.8246   1
   0   6   7 115.129 14.1501   6
   0   6   7 100.822 10.9278   6
   0   6   7 122.889 11.3993   4
   2  -6   7 1.04589 5.52050   2
  -2  -6  -7 13.6316 7.52658   6
  -2  -6  -7 -5.1100 5.10081   5
  -2   6  -7 7.84587 4.59419   6
  -2   6  -7 5.96032 6.78888   1
   2   6   7 4.07103 5.51919   6
   2   6   7 9.03433 6.26151   4
   4  -6   7 -8.2676 5.95945   2
  -4  -6  -7 0.02023 4.88245   5
  -4  -6  -7 -10.845 6.33629   6
   4   6   7 5.17937 4.41951   6
  -4   6  -7 -3.1198 6.09297   1
   4   6   7 -2.5748 5.49986   4
   4   6   7 -0.8029 4.56660   6
  -4   6  -7 17.0702 4.38162   6
   6  -6   7 -8.9253 6.63930   2
  -6  -6  -7 10.6085 4.59950   5
  -6  -6  -7 1.94738 6.71256   6
   6   6   7 3.85153 5.56741   4
  -6   6  -7 -4.9529 6.73286   1
  -8  -6  -7 62.7669 6.72563   5
  -8  -6  -7 43.4215 9.67352   6
   8  -6   7 35.1619 9.30162   2
  -8   6  -7 32.5083 9.05599   1
 -19  -7   7 20.6533 9.13226   3
 -19  -7   7 19.4556 7.65227   6
  19  -7  -7 13.6760 9.55976   5
 -19   7   7 9.28168 7.06885   3
 -19   7   7 18.2011 8.99660   4
  19   7  -7 14.1269 6.97846   6
  19   7  -7 11.5097 5.68435   1
  17  -7  -7 47.7660 10.2020   5
 -17  -7   7 58.0881 9.47818   6
 -17  -7   7 48.6061 10.2955   3
  17   7  -7 52.6737 7.37411   1
  17   7  -7 69.2075 7.91379   6
 -17   7   7 54.8685 8.26565   3
 -17   7   7 38.9911 9.96279   4
  17   7  -7 45.1160 7.91199   6
 -17   7   7 53.2889 8.14152   6
 -15  -7   7 10.9635 6.37422   2
 -15  -7   7 11.2694 6.56960   6
  15  -7  -7 10.7102 7.63490   5
 -15  -7   7 16.1430 7.92754   3
 -15  -7   7 28.1608 7.02638   6
 -15   7   7 20.8930 8.75671   4
  15   7  -7 19.1534 7.47668   6
  15   7  -7 9.54784 6.24600   1
 -15   7   7 10.1147 5.95956   3
 -15   7   7 8.92643 6.01562   6
  15   7  -7 11.8527 6.04756   6
 -13  -7   7 1.62374 5.51511   6
 -13  -7   7 0.10583 5.80001   2
 -13  -7   7 7.17061 5.05780   6
  13  -7  -7 1.53161 6.99827   5
 -13  -7   7 -0.3306 6.31006   3
  13   7  -7 9.46332 6.32818   1
 -13   7   7 -10.645 6.17602   4
 -13   7   7 3.34306 5.50048   6
  13   7  -7 -9.0972 5.34543   6
  13   7  -7 19.9048 6.16151   6
 -11  -7   7 136.797 11.9843   2
  11  -7  -7 147.503 12.4211   5
 -11  -7   7 148.763 10.2559   6
 -11  -7   7 142.348 10.6494   6
 -11  -7   7 141.079 12.1135   3
 -11   7   7 115.539 12.8537   4
  11   7  -7 146.217 12.9593   1
  11   7  -7 136.599 12.7169   6
  11   7  -7 155.934 13.0650   6
  -9  -7   7 575.607 20.7987   3
   9  -7  -7 586.445 15.0494   6
   9  -7  -7 580.697 21.8555   5
   9  -7  -7 608.268 14.9881   6
  -9  -7   7 578.892 18.3070   6
  -9  -7   7 591.507 22.0416   2
  -9   7   7 602.260 22.8101   4
   9   7  -7 592.318 21.4004   6
  -9   7   7 596.919 21.5821   6
   7  -7  -7 268.593 13.9476   6
  -7  -7   7 258.562 15.3328   2
   7  -7  -7 256.486 12.0537   6
  -7  -7   7 250.979 10.1687   6
  -7  -7   7 247.620 14.0301   3
  -7  -7   7 248.681 10.5205   6
  -7   7   7 243.177 15.6863   4
   7   7  -7 251.984 14.9341   6
   7   7  -7 249.679 16.5741   1
  -7   7   7 252.583 14.8996   6
   5  -7  -7 89.1020 8.85303   6
  -5  -7   7 93.7971 11.3370   2
  -5  -7   7 90.3674 9.75237   3
   5  -7  -7 95.9014 9.93673   6
   5  -7  -7 97.8715 10.5123   5
  -5   7   7 99.2174 11.6133   6
  -5   7   7 98.3617 12.8030   4
   5   7  -7 93.8002 12.4538   1
  -3  -7   7 9.73911 5.11981   4
  -3  -7   7 38.3598 8.28133   2
   3  -7  -7 28.3731 7.39911   5
   3  -7  -7 21.0749 7.37926   6
   3  -7  -7 19.2654 5.94048   6
  -3   7   7 32.1186 7.78729   4
   3   7  -7 14.7717 6.23331   6
   3   7  -7 13.7542 7.46147   1
   1  -7  -7 23.4094 6.72591   5
  -1  -7   7 26.7915 5.51842   4
   1  -7  -7 33.0293 8.29015   6
  -1  -7   7 22.4800 6.85638   2
   1  -7  -7 20.2844 6.30523   6
  -1   7   7 33.7465 7.62795   6
   1   7  -7 23.0304 6.42263   6
  -1   7   7 25.9991 7.76032   4
  -1   7   7 30.4534 8.12878   6
   1   7  -7 13.7117 7.52850   1
  -1  -7  -7 128.973 9.95626   5
   1  -7   7 128.308 7.84499   4
   1  -7   7 157.806 13.9737   2
  -1  -7  -7 157.622 13.5092   6
   1   7   7 145.957 11.0536   6
   1   7   7 130.862 12.5389   4
   1   7   7 142.691 11.8719   6
  -1   7  -7 125.128 14.9520   1
  -1   7  -7 139.311 11.3544   6
  -3  -7  -7 180.750 10.8183   5
   3  -7   7 155.013 7.37373   4
  -3  -7  -7 175.659 14.2455   6
   3  -7   7 159.664 13.3813   2
   3   7   7 158.668 11.6344   6
  -3   7  -7 183.566 10.5926   6
  -3   7  -7 151.872 15.8047   1
   3   7   7 194.217 13.5422   4
   3   7   7 168.437 13.4866   6
  -5  -7  -7 69.5891 7.63633   5
   5  -7   7 51.6167 9.97213   2
  -5  -7  -7 52.9683 9.99417   6
   5   7   7 78.5317 7.59592   6
  -5   7  -7 46.0955 10.8107   1
   5   7   7 48.7689 6.68238   6
   7  -7   7 -2.1318 7.22282   2
  -7  -7  -7 4.91828 7.43998   6
   7   7   7 4.99641 5.68194   4
 -18  -8   7 12.8960 8.42168   3
  18  -8  -7 4.74998 6.82127   5
 -18  -8   7 24.7738 8.17130   6
 -18   8   7 16.2032 5.96800   3
 -18   8   7 9.05720 8.19845   4
  18   8  -7 12.3405 5.81001   1
  18   8  -7 17.4220 6.39620   6
 -16  -8   7 141.873 13.9658   3
  16  -8  -7 148.967 17.4080   5
 -16  -8   7 134.392 13.3818   2
 -16  -8   7 167.934 13.4644   6
 -16   8   7 151.257 12.2094   6
  16   8  -7 143.851 12.9444   6
  16   8  -7 133.758 11.9655   1
 -16   8   7 167.718 17.2693   4
  14  -8  -7 189.692 14.6614   5
 -14  -8   7 238.118 12.9726   6
 -14  -8   7 218.818 14.4169   6
 -14  -8   7 200.692 14.6634   3
 -14  -8   7 203.352 14.8659   2
  14   8  -7 207.317 14.4088   6
 -14   8   7 204.967 13.9780   6
 -14   8   7 205.852 16.2852   4
  14   8  -7 210.643 14.5214   6
 -12  -8   7 55.6530 10.8658   3
 -12  -8   7 49.9390 8.06782   6
  12  -8  -7 56.4197 4.14577   2
 -12  -8   7 44.0458 8.39878   2
 -12  -8   7 60.3986 8.89181   6
  12  -8  -7 38.7550 9.63327   5
  12   8  -7 55.1047 8.65034   6
 -12   8   7 53.5431 10.3665   4
  12   8  -7 53.2668 9.45015   1
 -10  -8   7 4.12269 6.28909   3
  10  -8  -7 -2.2570 6.72330   5
 -10  -8   7 8.00240 6.66134   2
  10  -8  -7 -2.5328 2.65572   2
 -10  -8   7 3.88062 5.21269   6
 -10   8   7 -3.6036 6.65875   4
 -10   8   7 -3.2503 6.63778   6
  10   8  -7 1.16621 9.60697   6
  10   8  -7 -10.802 6.17015   1
  -8  -8   7 5.48008 6.67654   2
  -8  -8   7 11.3193 4.76262   6
  -8  -8   7 5.60706 6.12176   3
   8  -8  -7 11.8229 4.84495   6
  -8  -8   7 12.2960 4.30805   6
   8  -8  -7 6.63277 3.87691   6
   8  -8  -7 -5.4101 6.47203   5
   8   8  -7 5.34165 6.33960   1
  -8   8   7 18.5681 7.54104   4
  -8   8   7 3.63899 6.92643   6
   8   8  -7 14.2761 6.99204   6
   6  -8  -7 197.815 11.5488   6
  -6  -8   7 201.713 12.7483   3
   6  -8  -7 217.836 11.6933   6
  -6  -8   7 208.068 14.7316   2
   6  -8  -7 195.456 13.9444   5
   6   8  -7 190.163 13.8228   6
   6   8  -7 200.179 16.1258   1
  -6   8   7 227.153 15.5393   6
  -6   8   7 235.300 15.7598   4
  -4  -8   7 373.219 18.7530   2
   4  -8  -7 329.679 15.6927   6
   4  -8  -7 356.056 14.6469   6
   4   8  -7 385.169 19.9978   1
   4   8  -7 337.884 22.3806   6
  -4   8   7 363.823 19.0108   6
  -4   8   7 391.584 18.7746   4
   2  -8  -7 55.1867 9.07196   6
   2  -8  -7 48.5508 8.34392   5
  -2  -8   7 57.4158 10.0020   2
   2  -8  -7 51.1410 7.67636   6
   2   8  -7 65.6778 8.48522   6
   2   8  -7 52.4499 9.33913   3
  -2   8   7 54.8774 9.84415   6
  -2   8   7 41.1203 8.37460   6
   2   8  -7 48.1725 9.84224   1
  -2   8   7 43.8703 9.47801   4
   0  -8  -7 52.2043 8.30807   5
   0  -8  -7 45.7569 8.93387   6
   0  -8   7 42.4453 6.49538   4
   0  -8   7 52.1793 10.0495   2
   0   8   7 51.6518 9.30789   6
   0   8  -7 46.5969 8.32617   3
   0   8  -7 50.0534 7.91701   6
   0   8   7 43.6748 8.27663   6
   0   8   7 32.3060 8.67133   4
   0   8  -7 41.5132 9.80929   1
  -2  -8  -7 43.2004 9.41930   6
   2  -8   7 46.8062 10.7166   2
  -2  -8  -7 49.4097 7.29321   5
   2   8   7 35.3465 8.14919   6
   2   8   7 46.9799 7.45512   6
  -2   8  -7 38.4388 9.96976   1
  -2   8  -7 55.0291 7.66045   6
   2   8   7 49.5070 9.35828   4
  -4  -8  -7 18.6145 8.53165   6
  -4  -8  -7 17.5525 5.43947   5
   4  -8   7 7.78946 8.96774   2
   4   8   7 24.8101 7.57141   4
  15  -9  -7 62.7066 11.6472   5
 -15  -9   7 60.3414 10.3411   3
 -15  -9   7 61.4057 12.9293   6
 -15  -9   7 61.3709 10.5336   2
 -15   9   7 40.0808 10.4343   4
  15   9  -7 50.9934 8.99447   1
 -15   9   7 71.3440 9.72656   6
  13  -9  -7 7.92795 8.98976   5
  13  -9  -7 3.06549 2.80829   2
 -13  -9   7 5.22285 7.19883   6
 -13  -9   7 11.8755 7.26172   2
 -13  -9   7 1.70134 6.31441   3
 -13   9   7 -8.6439 7.78479   4
  13   9  -7 10.0781 6.78761   1
  13   9  -7 22.2006 7.77711   6
 -13   9   7 -3.3266 7.31578   6
 -11  -9   7 23.4815 8.21536   2
 -11  -9   7 22.2074 6.76191   6
  11  -9  -7 24.9971 4.39163   2
  11  -9  -7 24.1098 8.80930   5
  11   9  -7 30.8960 8.21314   1
 -11   9   7 25.3509 8.16656   6
  11   9  -7 40.5898 8.58301   6
 -11   9   7 20.6505 9.09487   4
   9  -9  -7 101.426 8.10009   2
  -9  -9   7 85.5345 7.54315   6
  -9  -9   7 116.402 10.8881   3
  -9  -9   7 74.7765 8.07105   6
   9  -9  -7 84.0149 11.9156   5
  -9  -9   7 108.296 12.7405   2
   9   9  -7 78.1559 11.2262   1
  -9   9   7 87.0394 10.9825   6
  -9   9   7 82.4799 11.8947   4
   7  -9  -7 243.926 9.99341   6
  -7  -9   7 242.050 16.1647   2
   7  -9  -7 215.762 10.3190   6
  -7  -9   7 233.796 12.9182   3
   7   9  -7 249.688 15.2538   6
  -7   9   7 203.035 16.6899   4
   7   9  -7 230.235 17.4184   1
  -7   9   7 245.313 15.8725   6
   5  -9  -7 56.0787 9.80490   5
  -5  -9   7 54.5612 9.34903   2
   5  -9  -7 55.9615 8.79744   6
   5  -9  -7 52.5164 7.60799   6
  -5   9   7 63.7283 11.3060   4
  -5   9   7 62.5902 10.2790   6
   5   9  -7 64.3077 9.77024   6
   5   9  -7 49.1335 11.4403   1
   3  -9  -7 13.2304 6.92263   6
  -3  -9   7 0.94366 6.92867   2
   3  -9  -7 3.54942 6.54639   5
   3  -9  -7 9.76693 4.60060   6
   3   9  -7 -7.6995 7.49748   1
  -3   9   7 -4.4514 6.26528   6
  -3   9   7 -8.4861 6.79072   4
   3   9  -7 4.10531 11.1594   6
   3   9  -7 -9.9609 4.18081   3
  -1  -9   7 32.4407 9.11201   2
   1  -9  -7 23.9858 6.73975   5
   1  -9  -7 23.9529 8.09023   6
  -1   9   7 17.1236 8.02639   6
  -1   9   7 6.30993 9.95554   6
  -1   9   7 27.3850 8.39960   4
   1   9  -7 26.9046 7.08270   6
   1   9  -7 39.1440 10.8816   1
  -1  -9  -7 114.192 9.75040   5
  -1  -9  -7 137.100 13.7229   6
   1   9   7 119.042 13.2436   4
   1   9   7 124.785 16.1261   6
  -1   9  -7 107.741 21.0446   1
  10 -10  -7 35.2665 8.77299   5
 -10 -10   7 48.5828 6.07633   6
 -10 -10   7 37.0346 7.68197   3
  10 -10  -7 39.4206 5.60087   2
 -10  10   7 41.5590 8.82841   6
 -10  10   7 34.3310 10.4173   4
  10  10  -7 34.0767 8.84738   6
  10  10  -7 46.0080 10.0861   1
  -8 -10   7 14.5424 5.81279   3
   8 -10  -7 28.4224 8.64747   5
   8 -10  -7 29.4805 6.07353   2
   8  10  -7 18.8483 7.87198   6
   8  10  -7 22.3222 8.96951   1
  -8  10   7 36.6392 13.5484   6
  -8  10   7 22.9216 13.6553   4
   6 -10  -7 15.3004 5.45323   6
   6 -10  -7 15.4085 7.47295   5
   6 -10  -7 13.8942 5.17339   6
  -6  10   7 0.36295 6.49576   6
   6  10  -7 8.71370 6.38402   6
   6  10  -7 10.5127 8.76893   1
  -6  10   7 -5.5974 7.50704   4
   4 -10  -7 134.116 12.9053   6
   4 -10  -7 172.519 12.9160   5
  -4 -10   7 158.143 16.6141   2
  -4  10   7 150.567 14.6229   6
  -4  10   7 143.257 15.2138   4
   4  10  -7 184.977 13.6233   6
  -2 -10   7 73.6579 11.6339   2
   2 -10  -7 79.6022 10.1087   6
   2 -10  -7 77.1393 9.59336   5
  -2  10   7 71.1457 11.1339   6
   2  10  -7 59.6276 11.5635   1
  -2  10   7 66.6936 10.9005   4
   2  10  -7 92.2080 14.9225   6
 -24   0   8 157.036 16.2914   3
  24   0  -8 181.699 13.5480   5
 -24   0   8 159.197 13.4631   6
  22   0  -8 110.384 12.4927   5
 -22   0   8 81.8237 10.1143   6
 -22   0   8 60.7378 7.17583   1
 -22   0   8 94.0641 12.6838   3
 -20   0   8 281.004 8.70459   2
 -20   0   8 276.653 17.6884   3
 -20   0   8 261.683 14.5197   6
  20   0  -8 302.622 16.2788   5
 -18   0   8 26.6308 8.22249   3
 -18   0   8 7.16276 10.0986   6
  18   0  -8 19.5704 8.34331   5
 -18   0   8 13.0446 2.81496   2
  16   0  -8 1421.98 28.2036   6
  16   0  -8 1342.39 27.5316   6
 -16   0   8 1385.89 35.4012   6
  16   0  -8 1388.74 35.1073   1
 -16   0   8 1358.93 25.8470   2
 -16   0   8 1429.39 37.9570   3
  14   0  -8 1792.66 36.6577   6
 -14   0   8 1811.89 43.8134   3
  14   0  -8 1809.08 42.3167   1
 -14   0   8 1758.13 40.2906   6
  14   0  -8 1767.85 36.6226   6
 -14   0   8 1750.22 32.3693   2
  14   0  -8 1724.02 36.0449   6
  12   0  -8 1298.99 34.1564   1
 -12   0   8 1306.60 31.8187   6
 -12   0   8 1246.39 31.3948   6
 -12   0   8 1325.17 34.7462   3
 -12   0   8 1279.78 25.4018   2
  12   0  -8 1288.50 30.0350   6
  12   0  -8 1278.83 29.5136   6
 -10   0   8 1364.15 32.5104   6
 -10   0   8 1428.68 36.0846   3
  10   0  -8 1443.71 37.0093   1
 -10   0   8 1388.78 32.9986   6
 -10   0   8 1422.90 28.4583   2
  10   0  -8 1371.65 31.9722   6
  10   0  -8 1419.54 32.4713   6
  -8   0   8 540.639 17.9284   6
  -8   0   8 552.802 16.7482   4
   8   0  -8 568.942 18.2347   6
  -8   0   8 538.072 15.3089   2
   8   0  -8 530.942 18.2218   6
  -8   0   8 534.783 17.4928   6
   8   0  -8 547.706 20.7922   1
   8   0  -8 553.273 15.1723   2
  -8   0   8 563.187 20.2954   3
  -6   0   8 4.90911 5.00184   6
  -6   0   8 4.41879 4.72016   6
  -6   0   8 4.72477 3.83669   4
   6   0  -8 4.00211 6.75499   1
   6   0  -8 1.72484 5.52682   6
   6   0  -8 -1.3277 3.49391   2
   6   0  -8 12.2415 6.25666   6
   4   0  -8 1137.63 35.4597   6
   4   0  -8 1060.51 31.1664   1
  -4   0   8 1056.99 24.8581   6
  -4   0   8 1080.77 22.9158   4
   4   0  -8 1020.12 25.8815   2
  -4   0   8 1079.31 26.6431   2
   2   0  -8 636.275 20.3114   6
  -2   0   8 614.967 19.8367   2
  -2   0   8 596.605 13.5104   4
  -2   0   8 617.069 15.3426   6
  -2   0   8 610.445 15.2756   6
   2   0  -8 619.231 23.2066   1
   0   0  -8 408.639 20.1535   1
   0   0  -8 397.336 16.3070   6
  -2   0  -8 595.150 19.8108   6
  -4   0  -8 2.67408 7.15756   1
  -4   0  -8 3.05645 5.67369   6
  -6   0  -8 303.585 14.7547   6
  -6   0  -8 341.745 19.7484   1
  -8   0  -8 73.1983 12.7550   6
  -8   0  -8 80.1609 11.4517   1
 -23  -1   8 7.24035 6.42509   6
  23  -1  -8 23.1850 8.24633   5
 -23   1   8 10.9351 8.02151   3
  23   1  -8 12.1776 6.77212   5
 -23   1   8 19.5840 6.81226   6
 -21  -1   8 5.83084 4.56874   1
 -21  -1   8 7.99767 6.12585   6
 -21  -1   8 10.2034 7.49110   3
  21  -1  -8 4.29137 6.97950   5
 -21   1   8 14.1254 6.12026   6
  21   1  -8 17.0503 7.32462   5
 -21   1   8 14.9128 8.35275   3
 -19  -1   8 1.02921 6.07404   6
  19  -1  -8 4.91842 7.12921   5
 -19  -1   8 2.26145 5.36054   1
 -19  -1   8 0.53673 3.46876   2
 -19  -1   8 -4.5194 6.86837   3
 -19   1   8 6.80737 5.89261   6
  19   1  -8 2.00927 5.27061   1
 -19   1   8 -0.2797 6.38930   3
  19   1  -8 10.1156 7.84110   5
  17  -1  -8 22.3839 7.89151   5
 -17  -1   8 31.4012 8.65951   3
 -17  -1   8 19.4184 4.31319   2
 -17  -1   8 31.9498 7.55895   6
  17   1  -8 24.7914 8.12637   6
 -17   1   8 20.8656 7.65569   3
 -17   1   8 29.6233 7.40214   6
  17   1  -8 24.6355 7.01311   1
  17   1  -8 28.1390 4.87972   6
  15  -1  -8 96.5194 6.96298   6
  15  -1  -8 109.426 11.6158   1
  15  -1  -8 92.7204 7.31374   6
 -15  -1   8 90.1911 6.61668   2
 -15  -1   8 88.1353 9.91456   6
 -15  -1   8 115.964 13.3002   3
 -15   1   8 108.926 13.5921   3
  15   1  -8 96.2370 8.29041   6
  15   1  -8 93.1293 10.8301   1
  13  -1  -8 -1.6283 4.59793   6
  13  -1  -8 -3.3113 4.26275   6
 -13  -1   8 4.13500 6.26628   3
  13  -1  -8 -1.0701 3.64489   6
 -13  -1   8 3.51648 3.29661   2
  13  -1  -8 -3.0512 6.15612   1
 -13  -1   8 1.38036 5.64030   6
 -13  -1   8 1.22562 4.87887   6
 -13   1   8 3.29892 6.61501   3
  13   1  -8 -5.6150 4.91396   6
  13   1  -8 -8.7899 5.55352   1
 -13   1   8 1.42561 5.48980   6
  13   1  -8 -6.3035 4.12158   6
 -13   1   8 7.52992 5.91209   4
  11  -1  -8 7.68867 4.78024   6
  11  -1  -8 5.28717 5.64627   6
 -11  -1   8 2.63079 4.96673   6
  11  -1  -8 12.6838 5.61211   6
  11  -1  -8 5.34743 6.80209   1
 -11  -1   8 5.56570 3.70616   2
 -11  -1   8 9.03317 5.59894   6
 -11  -1   8 12.5111 6.97286   3
 -11   1   8 10.2619 5.97923   6
  11   1  -8 4.20277 5.57788   6
 -11   1   8 6.65404 5.55612   4
  11   1  -8 15.3310 5.57793   6
 -11   1   8 7.33383 5.24633   6
 -11   1   8 7.36951 5.77384   3
  11   1  -8 1.74569 6.57766   1
   9  -1  -8 36.6611 6.61257   6
  -9  -1   8 42.9551 5.64697   2
  -9  -1   8 50.7523 7.52291   6
  -9  -1   8 41.2549 7.02091   6
   9  -1  -8 38.9854 4.33914   2
  -9  -1   8 32.7254 7.96803   3
   9  -1  -8 32.2667 6.65780   6
   9  -1  -8 38.0786 8.77973   1
   9   1  -8 36.2596 6.93100   6
  -9   1   8 46.1014 7.70691   6
   9   1  -8 61.9919 8.52375   6
  -9   1   8 32.3629 6.26755   4
  -9   1   8 43.6040 7.27379   6
  -9   1   8 30.0877 7.41494   3
   9   1  -8 28.9584 7.50758   1
   7  -1  -8 122.570 10.4960   6
  -7  -1   8 132.988 9.29381   6
  -7  -1   8 107.224 8.26857   2
   7  -1  -8 122.633 12.7774   1
   7  -1  -8 129.033 10.2252   6
   7  -1  -8 108.375 7.21268   2
  -7  -1   8 123.003 9.13119   6
  -7  -1   8 129.481 11.2285   3
  -7   1   8 129.811 8.78480   4
  -7   1   8 124.510 10.0296   6
   7   1  -8 129.844 8.18731   2
   7   1  -8 116.053 10.1892   6
  -7   1   8 117.320 9.63113   6
   7   1  -8 124.919 11.6761   1
   7   1  -8 127.578 11.6056   6
  -5  -1   8 -1.5051 3.27897   4
   5  -1  -8 -8.9026 5.07470   6
   5  -1  -8 2.66074 6.59960   1
   5  -1  -8 -7.1374 3.48391   2
   5  -1  -8 1.50005 5.27246   6
  -5  -1   8 5.06037 4.64254   2
  -5  -1   8 -4.4331 4.08500   6
   5   1  -8 -7.1055 6.14848   6
   5   1  -8 0.57363 3.85447   2
  -5   1   8 -0.1649 4.71074   6
  -5   1   8 6.82047 4.04826   4
   5   1  -8 -6.6005 4.75705   6
  -5   1   8 -2.0248 4.39165   6
   5   1  -8 -3.5628 5.30742   1
  -3  -1   8 59.1841 5.72552   6
  -3  -1   8 44.0331 7.10904   2
   3  -1  -8 54.6279 8.72998   6
  -3  -1   8 51.9304 5.89643   6
  -3  -1   8 45.7178 4.49294   4
   3  -1  -8 40.7545 8.63760   1
   3  -1  -8 48.9691 6.62249   2
   3   1  -8 43.6006 7.66666   6
   3   1  -8 33.5304 8.33067   1
  -3   1   8 46.4091 5.35095   4
  -3   1   8 66.3084 7.30438   6
  -3   1   8 29.3517 6.17974   6
   1  -1  -8 68.8156 10.1613   1
  -1  -1   8 64.2488 8.87308   2
   1  -1  -8 69.6806 9.51004   6
   1   1  -8 58.7658 9.87888   1
  -1   1   8 64.6335 6.08021   6
   1   1  -8 65.1229 8.24754   6
  -1   1   8 63.0289 5.13739   4
  -1   1   8 56.4496 6.16810   6
  -1  -1  -8 221.480 13.8040   6
   1  -1   8 237.687 13.8485   2
  -1  -1  -8 221.794 14.8873   1
  -1   1  -8 192.771 22.9667   1
  -1   1  -8 226.062 12.6773   6
  -3  -1  -8 59.9811 16.6977   1
  -3  -1  -8 93.9035 10.4042   6
  -3   1  -8 87.8467 9.72130   6
  -3   1  -8 63.9350 9.72393   1
  -5  -1  -8 34.8239 7.71963   6
  -5  -1  -8 10.5599 8.24668   1
  -5   1  -8 32.1316 8.42532   6
  -5   1  -8 17.4383 7.62216   1
  -7  -1  -8 24.5460 7.05995   6
  -7  -1  -8 18.5039 8.28658   1
  -7   1  -8 17.6023 8.35325   1
  -7   1  -8 20.8275 6.29311   6
  -9  -1  -8 36.4502 9.12322   1
  -9   1  -8 24.4350 8.91570   1
 -22  -2   8 33.9524 10.1613   3
  22  -2  -8 31.2388 8.55843   5
 -22  -2   8 32.6254 8.11596   6
 -22   2   8 15.5585 8.62324   3
 -22   2   8 23.2353 8.91107   4
  22   2  -8 33.9041 7.92722   5
 -22   2   8 52.7626 7.87626   6
  20  -2  -8 -0.3172 5.93095   5
 -20  -2   8 -4.5481 5.29401   6
 -20  -2   8 2.62981 6.84124   3
 -20  -2   8 5.46687 4.40923   1
  20   2  -8 2.31462 4.72226   1
 -20   2   8 4.04808 5.45220   6
  20   2  -8 -1.4576 6.51555   5
 -20   2   8 -4.2381 5.96775   4
 -20   2   8 0.41588 6.60566   3
 -18  -2   8 38.0201 5.69730   2
 -18  -2   8 44.8910 7.46789   1
 -18  -2   8 59.4499 10.1502   3
 -18  -2   8 43.5754 8.28652   6
  18  -2  -8 32.3601 8.65618   5
 -18   2   8 33.7606 7.35969   6
 -18   2   8 41.7584 9.21566   3
  18   2  -8 38.7274 7.44441   1
  18   2  -8 46.6038 5.50592   6
  18   2  -8 36.5795 5.64783   6
 -18   2   8 35.0336 8.18620   4
  18   2  -8 42.6991 5.57382   6
 -16  -2   8 6.70953 5.87402   6
  16  -2  -8 9.71144 6.83201   5
 -16  -2   8 5.65672 7.13925   3
  16   2  -8 8.03945 6.06327   1
  16   2  -8 4.65628 4.91052   6
 -16   2   8 -2.7131 5.62335   4
 -16   2   8 0.77793 5.63376   6
 -16   2   8 -5.1467 7.34112   3
  14  -2  -8 6.87654 11.8913   5
 -14  -2   8 0.37925 5.70743   6
 -14  -2   8 9.45616 4.45489   2
  14  -2  -8 -7.7470 3.43370   6
 -14  -2   8 6.76649 4.93813   6
  14  -2  -8 -4.2288 3.99603   6
  14   2  -8 9.12441 6.15345   1
  14   2  -8 1.15621 4.53671   6
 -14   2   8 -3.8876 5.24355   4
 -14   2   8 -5.9652 9.62975   6
 -14   2   8 -0.3111 5.70125   3
 -12  -2   8 1.58137 4.63691   6
 -12  -2   8 5.43408 6.70415   3
 -12  -2   8 -2.1759 5.24110   6
  12  -2  -8 4.29840 6.36067   1
  12  -2  -8 -1.2430 4.83719   6
 -12  -2   8 6.88543 5.40992   2
  12  -2  -8 -0.3428 5.05954   6
 -12   2   8 -0.2750 6.26053   3
 -12   2   8 1.80108 5.36709   6
 -12   2   8 0.57943 5.42186   4
  12   2  -8 9.22084 5.83764   6
  12   2  -8 5.94314 5.22326   6
  12   2  -8 3.99939 6.11474   1
  10  -2  -8 315.517 13.6943   6
 -10  -2   8 300.501 13.5575   6
 -10  -2   8 305.215 15.6083   3
  10  -2  -8 319.883 16.5801   1
  10  -2  -8 287.737 13.0574   6
  10  -2  -8 340.707 13.3403   6
 -10  -2   8 305.212 12.0669   2
 -10  -2   8 300.194 13.3366   6
 -10   2   8 309.339 14.3979   6
  10   2  -8 287.400 15.1336   1
  10   2  -8 306.726 13.7522   6
  10   2  -8 300.839 13.9124   6
 -10   2   8 284.250 13.8732   6
 -10   2   8 280.989 13.7440   4
 -10   2   8 281.727 15.6082   3
  -8  -2   8 432.513 15.6141   6
  -8  -2   8 440.214 15.1103   2
  -8  -2   8 437.289 15.2183   6
   8  -2  -8 413.193 11.7225   2
   8  -2  -8 424.157 16.3021   6
   8  -2  -8 411.075 15.9269   6
  -8  -2   8 447.122 18.6566   3
   8  -2  -8 440.808 19.3542   1
   8  -2  -8 421.242 15.6149   6
   8   2  -8 405.428 18.2495   1
  -8   2   8 408.475 15.7449   6
   8   2  -8 493.949 23.7809   6
  -8   2   8 414.430 16.5462   6
   8   2  -8 427.652 16.6186   6
  -8   2   8 444.095 15.9458   4
   6  -2  -8 3.38898 5.78442   6
   6  -2  -8 0.69016 3.51667   2
   6  -2  -8 15.6320 5.93096   6
  -6  -2   8 6.51365 4.93540   2
  -6  -2   8 11.1275 4.89656   6
   6  -2  -8 10.8383 6.66572   6
   6  -2  -8 5.54553 6.87322   1
   6   2  -8 2.76306 4.22607   2
  -6   2   8 15.4855 4.92353   4
  -6   2   8 5.96673 5.77010   6
   6   2  -8 7.71609 5.86645   6
   6   2  -8 -2.2604 6.48764   1
  -6   2   8 6.16917 4.88974   6
   6   2  -8 0.75811 5.58811   6
  -4  -2   8 65.1372 6.08727   6
   4  -2  -8 68.9986 8.67350   6
  -4  -2   8 62.7664 5.64342   4
  -4  -2   8 71.5596 6.49595   6
   4  -2  -8 63.3715 8.96006   6
  -4  -2   8 80.6020 8.76314   2
   4  -2  -8 74.1231 10.6869   1
   4   2  -8 83.5464 9.49875   6
  -4   2   8 78.4937 8.59001   6
   4   2  -8 57.5003 9.68540   1
  -4   2   8 73.5981 8.21942   6
  -4   2   8 69.9168 7.39413   4
   2  -2  -8 -8.4821 4.22461   2
  -2  -2   8 2.96318 5.20569   2
   2  -2  -8 -9.4863 6.60932   1
   2  -2  -8 5.02875 6.54448   6
  -2   2   8 2.05423 3.68327   6
  -2   2   8 5.68867 4.01595   4
   2   2  -8 0.35341 5.58232   6
  -2   2   8 -2.1180 4.53018   6
   2   2  -8 -8.0710 6.20558   1
   0  -2   8 62.3270 9.15018   2
   0  -2  -8 59.3491 15.3334   6
   0  -2  -8 54.6242 9.62609   1
   0   2  -8 60.4433 8.28263   6
   0   2   8 58.5995 5.98001   4
   0   2   8 55.8763 6.28460   6
   0   2   8 58.7335 6.02386   6
   2  -2   8 2.03031 6.45643   2
  -2  -2  -8 6.16516 6.93041   6
  -2   2  -8 -8.5102 4.48877   6
  -2   2  -8 -3.7386 5.97135   1
   2   2   8 1.90991 2.64103   4
   4  -2   8 10.6855 6.49652   2
  -4  -2  -8 13.4560 7.10205   6
  -4  -2  -8 26.4899 8.76553   1
  -4   2  -8 12.5168 7.40467   1
  -4   2  -8 25.7785 6.16602   6
  -6  -2  -8 12.5357 7.98082   1
  -6  -2  -8 21.4242 7.76872   6
  -6   2  -8 6.98655 7.61682   1
  -6   2  -8 29.6964 6.10460   6
  -8  -2  -8 4.24859 7.29063   1
  -8  -2  -8 6.84625 7.14562   6
  -8   2  -8 3.53900 7.40242   1
  23  -3  -8 10.9852 7.62721   5
 -23  -3   8 8.79402 5.61560   6
 -23  -3   8 -4.4431 7.65533   3
  23   3  -8 -0.3468 5.70231   5
 -23   3   8 -5.1807 6.92384   4
 -23   3   8 9.55638 7.67068   3
 -21  -3   8 5.35104 4.15376   1
  21  -3  -8 -3.2248 7.12380   5
 -21  -3   8 -1.0398 7.28443   3
 -21  -3   8 -2.9665 5.71531   6
  21   3  -8 -5.4804 6.48016   5
 -21   3   8 7.17487 7.27239   4
 -21   3   8 -1.9939 6.66038   3
  21   3  -8 5.64844 4.76657   1
 -21   3   8 16.1492 5.51719   6
  19  -3  -8 13.7045 8.57506   5
 -19  -3   8 -0.9598 4.36538   1
 -19  -3   8 16.2248 6.50015   6
 -19  -3   8 1.52915 7.61674   3
 -19  -3   8 13.5873 5.23453   2
  19   3  -8 8.43660 5.75209   1
 -19   3   8 24.2695 6.55157   6
 -19   3   8 18.8973 7.49001   4
 -19   3   8 8.26965 6.44839   3
  19   3  -8 13.3184 4.23920   6
 -17  -3   8 57.3729 7.13867   2
 -17  -3   8 57.0680 10.1233   3
  17  -3  -8 43.6631 9.34378   5
 -17  -3   8 58.6221 8.73002   6
  17   3  -8 53.4551 6.90239   6
 -17   3   8 37.8376 8.22992   4
 -17   3   8 62.9560 9.17680   6
  17   3  -8 80.0437 9.06894   6
  17   3  -8 49.2954 8.20390   1
 -17   3   8 43.9284 9.04802   3
  15  -3  -8 94.7969 11.9073   5
 -15  -3   8 69.1676 9.00714   6
 -15  -3   8 74.8020 7.77851   2
 -15  -3   8 72.0661 10.5681   3
  15   3  -8 61.5096 8.28562   6
 -15   3   8 85.4961 10.9379   3
 -15   3   8 67.2539 8.84317   6
 -15   3   8 68.5688 9.79517   4
  15   3  -8 75.8790 8.26335   6
  15   3  -8 64.1857 8.83838   1
 -13  -3   8 28.2627 5.65959   2
 -13  -3   8 14.5097 8.52532   3
  13  -3  -8 20.1027 4.62503   6
  13  -3  -8 21.0099 5.09408   6
 -13  -3   8 31.0914 7.10077   6
 -13   3   8 49.3760 9.03420   3
  13   3  -8 33.8292 7.04590   6
  13   3  -8 21.9820 6.13140   6
  13   3  -8 21.7981 7.25476   1
 -13   3   8 32.2755 9.39027   6
 -13   3   8 31.6672 7.46736   4
 -11  -3   8 256.489 15.4694   3
 -11  -3   8 241.489 12.7065   6
 -11  -3   8 261.647 12.0673   2
  11  -3  -8 246.458 11.8254   6
  11  -3  -8 256.651 15.1207   5
 -11  -3   8 253.398 13.2765   6
  11   3  -8 258.304 12.7141   6
 -11   3   8 243.177 14.8232   3
  11   3  -8 259.834 13.1914   6
  11   3  -8 276.965 15.4604   1
 -11   3   8 256.846 14.1612   4
 -11   3   8 257.297 14.0453   6
  -9  -3   8 799.152 22.1156   6
   9  -3  -8 803.173 26.4815   1
   9  -3  -8 799.477 21.8505   6
  -9  -3   8 782.381 21.9088   2
  -9  -3   8 793.284 25.1491   3
  -9  -3   8 789.598 21.7230   4
  -9  -3   8 699.429 25.2127   6
   9  -3  -8 788.615 16.2275   2
   9  -3  -8 797.283 22.2994   6
  -9   3   8 797.595 23.3627   4
   9   3  -8 799.341 26.1441   1
   9   3  -8 811.892 23.5111   6
  -9   3   8 789.443 23.5696   6
  -9   3   8 760.223 22.8538   6
  -7  -3   8 200.994 10.6034   6
   7  -3  -8 196.271 14.8396   1
  -7  -3   8 188.018 11.2135   2
   7  -3  -8 194.743 8.39956   2
  -7  -3   8 197.579 13.6716   3
  -7  -3   8 209.320 10.3077   4
   7  -3  -8 208.934 12.9690   6
   7  -3  -8 199.945 11.9839   6
  -7  -3   8 224.175 15.5348   6
   7  -3  -8 184.870 11.9765   6
  -7   3   8 201.231 11.8067   4
   7   3  -8 214.014 14.0514   1
  -7   3   8 192.367 12.7512   6
  -7   3   8 196.438 12.1982   6
   7   3  -8 206.812 12.3696   6
   5  -3  -8 214.985 14.9962   1
   5  -3  -8 218.368 13.1033   6
   5  -3  -8 184.608 9.39761   2
  -5  -3   8 199.044 9.21743   6
   5  -3  -8 182.740 11.8260   6
  -5  -3   8 187.626 11.6508   2
   5  -3  -8 201.674 13.3101   6
  -5  -3   8 188.666 8.56729   6
  -5  -3   8 200.557 8.94177   4
  -5   3   8 196.512 12.1645   6
   5   3  -8 207.227 15.0939   1
  -5   3   8 195.951 11.0183   4
   5   3  -8 205.536 12.2180   6
  -5   3   8 190.693 11.4233   6
   3  -3  -8 112.430 13.4729   1
   3  -3  -8 111.090 12.3309   6
   3  -3  -8 112.409 11.5406   6
   3  -3  -8 138.711 9.22541   2
  -3  -3   8 124.308 10.8277   2
   3  -3  -8 126.313 10.7196   6
  -3   3   8 126.847 10.2197   4
   3   3  -8 110.358 12.1971   1
  -3   3   8 100.581 9.61421   6
  -3   3   8 133.971 9.69479   6
   3   3  -8 110.231 10.3510   6
   1  -3  -8 253.001 14.5991   6
   1  -3  -8 260.847 15.0553   6
   1  -3  -8 255.947 16.0279   1
  -1  -3   8 259.591 14.3702   2
  -1   3   8 244.049 11.0191   4
  -1   3   8 255.086 11.0929   6
   1   3  -8 242.637 12.9368   6
  -1   3   8 246.443 11.5972   6
   1   3  -8 248.363 17.3624   1
  -1  -3  -8 394.826 17.5633   6
   1  -3   8 375.208 17.9742   2
  -1  -3  -8 397.809 17.5670   6
   1   3   8 399.090 13.0575   4
  -1   3  -8 390.480 15.3394   6
  -1   3  -8 374.633 19.6286   1
   1   3   8 399.823 12.0433   6
   1   3   8 392.944 13.0864   6
   3  -3   8 39.0105 8.34586   2
  -3  -3  -8 35.9094 8.45032   6
  -3  -3  -8 37.7620 8.37856   6
  -3  -3  -8 23.3202 8.16375   1
  -3   3  -8 23.9340 6.24381   6
  -3   3  -8 30.5780 8.87354   1
   3   3   8 33.7640 4.71500   4
  -5  -3  -8 2.59508 7.22636   1
  -5  -3  -8 6.92379 3.08121   4
   5  -3   8 5.21711 7.59962   2
  -5   3  -8 20.2476 5.40634   6
  -5   3  -8 12.6570 7.71748   1
  -7  -3  -8 -0.4608 6.83645   1
  -7  -3  -8 -2.6156 10.3779   6
  -7  -3  -8 3.60980 11.2489   6
   7  -3   8 1.35289 7.71033   2
  -7   3  -8 -14.630 6.58745   1
  22  -4  -8 84.6250 11.9187   5
 -22  -4   8 111.029 11.6706   6
 -22  -4   8 104.218 14.3804   3
 -22   4   8 96.7609 12.7542   4
  22   4  -8 100.676 11.0900   5
  22   4  -8 106.079 10.1819   1
 -22   4   8 85.3779 11.6327   3
 -20  -4   8 71.7683 7.85156   1
  20  -4  -8 95.5147 12.9440   5
 -20  -4   8 94.0454 13.1326   3
 -20  -4   8 94.8912 11.4659   6
  20   4  -8 84.7562 6.43479   6
 -20   4   8 74.2780 10.2716   3
  20   4  -8 93.8106 9.77711   1
  20   4  -8 84.3942 6.31858   6
 -20   4   8 93.8414 9.93830   6
 -20   4   8 77.0121 10.9318   4
 -18  -4   8 16.7182 6.06527   2
 -18  -4   8 17.6637 7.00901   6
 -18  -4   8 23.6894 8.76089   3
  18  -4  -8 23.0429 8.60767   5
  18   4  -8 16.1702 6.24468   1
 -18   4   8 26.9894 7.84510   4
 -18   4   8 22.1743 6.49055   6
 -18   4   8 20.2266 7.52939   3
  18   4  -8 23.2111 6.13496   6
  18   4  -8 26.0494 5.29031   6
 -16  -4   8 102.452 11.6960   3
  16  -4  -8 120.474 12.8492   5
 -16  -4   8 83.4682 8.94790   2
 -16  -4   8 124.625 11.8099   6
 -16   4   8 103.826 10.8184   6
  16   4  -8 94.0617 11.0984   1
  16   4  -8 93.3703 9.65613   6
 -16   4   8 100.663 11.6299   4
  16   4  -8 87.7899 8.41976   6
 -14  -4   8 668.482 24.2938   3
 -14  -4   8 612.767 21.1872   6
 -14  -4   8 592.819 20.3831   6
 -14  -4   8 590.904 19.2575   2
  14  -4  -8 651.489 23.9553   5
 -14   4   8 620.203 22.9118   4
 -14   4   8 607.192 21.1388   6
  14   4  -8 604.097 19.4067   6
 -14   4   8 611.947 22.6389   3
  14   4  -8 595.849 21.7627   1
  14   4  -8 614.653 20.3657   6
 -12  -4   8 1181.13 33.2625   3
 -12  -4   8 1161.28 29.9058   6
  12  -4  -8 1146.17 32.0638   5
 -12  -4   8 1189.24 29.4883   2
 -12  -4   8 1143.20 29.6654   6
  12  -4  -8 1176.34 25.1368   6
  12   4  -8 1176.46 30.3042   6
 -12   4   8 1154.09 30.4098   6
 -12   4   8 1194.40 32.3979   4
 -12   4   8 1225.77 32.5345   3
  12   4  -8 1157.74 32.5659   1
  12   4  -8 1166.32 29.9001   6
 -10  -4   8 1163.37 32.5970   3
  10  -4  -8 1193.79 33.2210   5
 -10  -4   8 1152.45 29.1255   6
 -10  -4   8 1194.21 29.7313   2
  10   4  -8 1184.21 30.5708   6
 -10   4   8 1143.71 30.8372   4
  10   4  -8 1230.94 33.8943   1
  10   4  -8 1148.03 29.8616   6
 -10   4   8 1197.91 30.9144   6
   8  -4  -8 362.961 10.4824   2
  -8  -4   8 387.458 14.0500   6
  -8  -4   8 370.752 14.1554   4
   8  -4  -8 374.067 15.4148   6
   8  -4  -8 383.620 14.7920   6
  -8  -4   8 381.702 17.7621   3
  -8  -4   8 378.345 15.4884   6
  -8  -4   8 372.632 15.7339   2
   8  -4  -8 351.089 17.3195   5
  -8   4   8 362.977 16.2488   6
  -8   4   8 365.770 16.2355   4
   8   4  -8 362.514 17.6913   1
   8   4  -8 386.330 16.8988   6
  -8   4   8 347.869 15.7164   6
  -6  -4   8 121.550 7.66457   6
  -6  -4   8 117.949 8.03519   6
   6  -4  -8 114.333 10.1496   6
   6  -4  -8 112.328 11.2442   6
  -6  -4   8 131.317 12.2905   3
   6  -4  -8 116.005 7.25931   2
  -6  -4   8 116.253 10.6703   2
  -6  -4   8 104.132 8.27883   4
   6  -4  -8 121.121 14.5809   1
   6   4  -8 131.126 12.4012   1
   6   4  -8 147.990 12.0834   6
  -6   4   8 138.794 11.5627   6
  -6   4   8 123.202 10.5136   4
  -6   4   8 116.128 10.3524   6
  -4  -4   8 1328.45 33.7035   2
  -4  -4   8 1281.49 27.2181   4
   4  -4  -8 1344.32 32.8678   2
   4  -4  -8 1299.90 32.3064   6
   4  -4  -8 1298.11 32.9295   6
  -4   4   8 1334.04 31.3066   4
   4   4  -8 1333.07 32.6568   6
  -4   4   8 1305.14 32.2711   6
  -4   4   8 1293.37 31.7831   6
  -2  -4   8 1492.05 32.0443   4
   2  -4  -8 1545.58 33.4562   4
   2  -4  -8 1304.11 38.7683   6
   2  -4  -8 1540.53 44.8499   1
   2  -4  -8 1494.50 36.3714   6
  -2  -4   8 1480.28 37.1919   2
   2   4  -8 1553.23 41.1932   1
  -2   4   8 1508.37 34.2686   6
  -2   4   8 1450.76 33.3987   6
  -2   4   8 1444.74 33.1028   4
   2   4  -8 1448.28 34.5152   6
   0  -4  -8 556.976 23.5030   1
   0  -4  -8 563.333 21.0900   6
   0  -4  -8 553.229 21.1402   6
   0  -4   8 578.980 21.7345   2
   0   4   8 615.962 19.6674   6
   0   4  -8 535.256 18.3505   6
   0   4  -8 602.891 24.6645   1
   0   4   8 565.708 17.6995   4
   0   4   8 589.767 17.9813   6
   2  -4   8 31.8206 7.93756   2
  -2  -4  -8 31.7097 9.10982   1
  -2  -4  -8 31.5882 5.86738   4
  -2  -4  -8 27.8169 8.32979   6
  -2  -4  -8 47.3519 9.84094   6
   2   4   8 36.6023 4.93854   6
   2   4   8 25.6098 5.69631   4
  -2   4  -8 50.7332 6.83138   6
  -2   4  -8 27.6672 9.35961   1
   2   4   8 34.8860 5.14365   6
  -4  -4  -8 19.2920 7.71686   1
   4  -4   8 26.1445 8.27383   2
  -4  -4  -8 40.1877 8.97933   6
  -4  -4  -8 21.9035 4.58834   4
  -4  -4  -8 37.6345 8.95097   6
  -4   4  -8 39.0399 6.23680   6
  -4   4  -8 35.3600 9.64650   1
  -6  -4  -8 75.4374 11.2634   6
  -6  -4  -8 116.834 12.8886   6
   6  -4   8 76.5936 10.9853   2
  -6  -4  -8 81.0459 11.0648   1
  -6   4  -8 92.8388 12.3829   1
  -8  -4  -8 70.7331 10.7865   6
   8  -4   8 83.7583 12.9061   2
  -8   4  -8 64.8373 11.2021   1
 -21  -5   8 4.85237 14.0286   3
 -21  -5   8 5.76380 6.33525   6
 -21   5   8 6.22677 7.03356   3
 -21   5   8 4.43572 7.41251   4
  21   5  -8 -1.7750 4.77961   1
  19  -5  -8 0.00548 7.82111   5
 -19  -5   8 -1.8315 7.14361   3
 -19  -5   8 9.13904 6.81459   6
  19   5  -8 1.17332 4.05207   6
 -19   5   8 5.55418 5.53959   6
 -19   5   8 12.4667 7.27399   3
 -19   5   8 0.01083 6.83714   4
  19   5  -8 0.51295 4.82968   6
  19   5  -8 -1.0745 5.10546   1
 -17  -5   8 0.80111 5.21623   2
  17  -5  -8 11.6576 7.89840   5
 -17  -5   8 8.43085 6.47745   3
 -17  -5   8 11.5619 6.35698   6
  17   5  -8 10.8616 5.95438   1
  17   5  -8 7.09527 5.28456   6
 -17   5   8 3.31251 6.69292   4
  17   5  -8 4.67754 5.48106   6
 -17   5   8 7.48249 6.11003   6
 -17   5   8 0.73265 6.52399   3
 -15  -5   8 29.2152 8.37599   3
 -15  -5   8 28.2269 6.51558   6
  15  -5  -8 34.0506 9.15268   5
 -15  -5   8 27.4308 7.70526   6
 -15  -5   8 24.4331 6.56142   2
 -15   5   8 30.6354 8.42550   4
  15   5  -8 23.3724 6.35909   6
  15   5  -8 31.5093 7.24439   6
 -15   5   8 26.1282 7.46409   3
 -15   5   8 34.2906 8.07687   6
  15   5  -8 34.0887 7.67277   1
  13  -5  -8 7.87622 6.62838   5
 -13  -5   8 5.54818 5.77626   2
 -13  -5   8 0.86591 5.49945   6
 -13  -5   8 2.94381 6.91278   3
 -13  -5   8 17.7656 5.85645   6
  13   5  -8 8.05352 6.51305   1
 -13   5   8 6.18943 6.42172   3
  13   5  -8 20.2288 5.95131   6
 -13   5   8 9.60825 6.92570   6
 -13   5   8 -10.224 5.42189   4
  13   5  -8 10.7473 6.60490   6
  11  -5  -8 27.0900 5.01058   6
  11  -5  -8 31.8892 5.60334   6
 -11  -5   8 21.5340 7.89266   3
 -11  -5   8 30.6456 6.76349   2
  11  -5  -8 29.2093 8.16996   5
 -11  -5   8 25.2189 6.13457   6
 -11  -5   8 37.2802 7.36620   6
  11   5  -8 34.9266 7.28413   6
  11   5  -8 25.7052 7.57025   1
 -11   5   8 22.4931 9.45713   4
 -11   5   8 37.8192 8.30340   6
  11   5  -8 40.2608 7.33855   6
  -9  -5   8 15.4692 5.46544   6
  -9  -5   8 9.01570 6.16273   2
  -9  -5   8 18.9780 5.15527   6
  -9  -5   8 12.2307 7.13405   3
   9  -5  -8 21.4998 5.92250   6
  -9   5   8 15.6674 6.97404   6
   9   5  -8 27.4874 7.52897   6
  -9   5   8 18.4313 6.95368   4
   9   5  -8 15.7414 8.07934   1
  -7  -5   8 228.226 11.6123   4
  -7  -5   8 220.501 10.4805   6
   7  -5  -8 241.548 14.9430   5
  -7  -5   8 222.412 9.93983   6
   7  -5  -8 219.423 9.04570   2
   7  -5  -8 230.583 13.7314   6
   7  -5  -8 228.204 13.5371   6
  -7  -5   8 238.965 13.5902   2
  -7  -5   8 228.410 14.1159   3
  -7   5   8 233.916 14.1115   6
  -7   5   8 243.440 13.7612   6
  -7   5   8 245.439 13.6596   4
   7   5  -8 236.240 13.8971   6
   5  -5  -8 15.6601 7.57819   5
  -5  -5   8 18.3202 5.06780   4
   5  -5  -8 27.6999 6.34456   6
  -5  -5   8 24.2117 7.61173   2
   5  -5  -8 17.1826 4.93392   2
  -5   5   8 24.1865 7.10829   6
  -5   5   8 30.4700 7.47541   4
  -5   5   8 27.6160 7.51189   6
   5   5  -8 30.6987 8.06456   6
   5   5  -8 11.6083 6.89112   1
  -3  -5   8 11.1340 3.98939   4
   3  -5  -8 7.09095 6.71275   6
   3  -5  -8 9.02199 6.64278   5
   3  -5  -8 2.20720 4.46264   2
  -3  -5   8 11.1138 6.20799   2
  -3   5   8 17.9128 6.39127   4
   3   5  -8 9.42974 5.95923   6
  -3   5   8 11.8120 6.57015   6
   3   5  -8 -4.4966 7.07181   1
  -3   5   8 23.6120 6.28433   6
   1  -5  -8 101.082 10.5706   5
  -1  -5   8 75.4142 10.4047   2
   1  -5  -8 95.0226 10.8478   6
  -1   5   8 89.7904 8.83984   6
   1   5  -8 68.4623 11.4512   1
  -1   5   8 65.6043 8.55428   4
   1   5  -8 84.5856 9.39318   6
  -1   5   8 78.8803 8.97190   6
   1  -5   8 44.6308 8.89359   2
  -1  -5  -8 34.0393 8.73737   6
  -1  -5  -8 41.7735 7.98184   5
  -1   5  -8 54.7795 12.3844   6
   1   5   8 44.1595 6.96315   6
   1   5   8 47.7272 7.30491   4
  -1   5  -8 27.7564 8.30758   1
  -3  -5  -8 -1.7620 7.27149   6
  -3  -5  -8 -12.833 4.91258   5
  -3  -5  -8 -1.1961 4.66035   4
   3  -5   8 -1.4486 6.27032   2
  -3   5  -8 4.56337 4.95512   6
   3   5   8 -0.9761 3.82805   6
  -3   5  -8 2.14827 6.38526   1
   3   5   8 -5.0127 4.78426   4
   5  -5   8 0.37123 7.00950   2
  -5  -5  -8 -14.561 5.13736   5
  -5  -5  -8 -8.2325 7.11815   6
  -5   5  -8 -4.6325 7.47867   1
   5   5   8 -2.8647 4.54013   4
  -7  -5  -8 2.48110 7.45820   6
  -7  -5  -8 2.41254 5.30194   5
   7  -5   8 17.0962 7.95713   2
  -7   5  -8 -8.9941 7.79669   1
  20  -6  -8 19.6234 8.44727   5
 -20  -6   8 15.1756 7.48047   6
 -20   6   8 -15.382 5.14737   3
  20   6  -8 6.82988 5.96407   6
  20   6  -8 -11.081 4.82996   1
 -20   6   8 -14.080 6.22092   4
  20   6  -8 -10.943 4.39469   6
 -18  -6   8 14.1120 6.82803   6
  18  -6  -8 2.13656 8.02826   5
 -18  -6   8 26.5932 7.20364   2
 -18  -6   8 26.4329 9.55930   3
 -18   6   8 15.3209 7.33307   3
  18   6  -8 17.6254 6.35941   6
 -18   6   8 21.7483 8.44461   4
  18   6  -8 15.6087 6.26752   1
 -18   6   8 11.6429 5.97976   6
 -16  -6   8 15.5370 6.29119   6
  16  -6  -8 -1.2605 7.52155   5
 -16  -6   8 4.87685 6.43769   6
 -16  -6   8 3.13737 6.05856   3
 -16  -6   8 7.66366 5.84119   2
  16   6  -8 13.9112 5.68093   6
  16   6  -8 6.47766 5.99641   1
 -16   6   8 -3.1265 5.93614   6
  16   6  -8 -5.8717 5.40140   6
 -16   6   8 -4.1144 6.20209   4
 -14  -6   8 19.6886 7.97053   2
 -14  -6   8 17.2077 7.92645   3
 -14  -6   8 36.3346 7.07886   6
  14  -6  -8 10.3143 7.73632   5
 -14  -6   8 25.0737 7.28786   6
  14   6  -8 23.5765 7.41612   1
 -14   6   8 20.6020 7.85813   4
 -14   6   8 27.7602 7.08005   3
  14   6  -8 30.2390 6.73020   6
  14   6  -8 34.3206 7.84235   6
 -12  -6   8 2.63231 4.85751   6
 -12  -6   8 0.57651 5.29034   6
  12  -6  -8 1.22399 6.98086   5
 -12  -6   8 5.48082 6.45808   3
 -12   6   8 8.60201 7.40283   4
 -12   6   8 -3.2167 5.72466   6
  12   6  -8 -4.5442 6.41175   1
  12   6  -8 -0.0344 6.33372   6
  12   6  -8 7.12451 5.42655   6
 -10  -6   8 9.32644 4.73549   6
 -10  -6   8 5.05941 5.12917   6
 -10  -6   8 6.55239 6.52990   3
  10  -6  -8 -3.9749 4.43440   6
  10  -6  -8 1.66766 3.55587   6
  10  -6  -8 10.7889 6.93142   5
 -10   6   8 0.02666 6.78561   6
 -10   6   8 3.50013 6.96430   4
  10   6  -8 -2.2465 6.91486   1
  10   6  -8 -2.9719 5.92478   6
  -8  -6   8 17.9211 4.60665   6
  -8  -6   8 25.6832 11.5254   2
  -8  -6   8 17.3446 6.75111   3
   8  -6  -8 17.1157 6.08764   6
  -8  -6   8 20.4907 5.40534   6
   8  -6  -8 10.7861 7.03140   5
   8  -6  -8 14.3819 3.63895   2
   8   6  -8 15.9326 7.05332   6
  -8   6   8 8.58593 7.03748   6
  -8   6   8 15.4937 8.53392   4
   8   6  -8 21.6851 8.00017   1
  -6  -6   8 78.6948 8.55197   4
  -6  -6   8 98.5770 10.7171   3
   6  -6  -8 104.706 7.69341   2
  -6  -6   8 68.1895 9.37980   2
   6  -6  -8 97.9095 10.7459   6
  -6   6   8 110.013 11.3596   6
  -6   6   8 103.158 11.2755   4
  -6   6   8 94.7081 10.5879   6
   6   6  -8 74.7429 10.5588   1
   6   6  -8 104.967 11.2360   6
   4  -6  -8 127.340 10.9067   6
  -4  -6   8 111.816 8.60415   4
   4  -6  -8 128.105 9.08436   2
   4  -6  -8 128.731 11.4259   5
   4  -6  -8 124.331 12.0503   6
  -4  -6   8 135.436 12.4354   2
   4   6  -8 145.578 12.1299   6
   4   6  -8 155.663 14.6886   1
  -4   6   8 135.356 11.6822   4
  -4   6   8 132.704 11.8284   6
  -4   6   8 148.784 11.4422   6
   2  -6  -8 10.1966 6.55384   5
   2  -6  -8 7.35901 7.49310   6
  -2  -6   8 13.0794 3.86198   4
   2  -6  -8 13.4135 6.32252   6
  -2  -6   8 7.93090 6.19835   2
   2   6  -8 5.02366 6.61190   1
  -2   6   8 10.2022 6.59532   4
  -2   6   8 4.53949 5.75134   6
   2   6  -8 14.7085 6.33426   6
  -2   6   8 4.40691 6.44437   6
   0  -6   8 -3.5001 5.77274   2
   0  -6  -8 13.0173 6.48490   5
   0  -6  -8 5.25368 7.09827   6
   0   6  -8 -6.7308 7.37723   1
   0   6   8 0.38781 6.09842   6
   0   6   8 -2.7957 4.60209   6
   0   6  -8 -0.2861 5.19242   6
   0   6   8 5.54996 5.83645   4
   2  -6   8 -4.2749 5.92507   2
  -2  -6  -8 0.05375 9.09318   6
  -2  -6  -8 4.42460 5.32353   5
  -2   6  -8 3.45961 4.81452   6
   2   6   8 -4.2044 5.10371   4
  -2   6  -8 -0.9307 7.36019   1
   2   6   8 10.7790 4.79714   6
   2   6   8 2.59881 5.22182   6
   4  -6   8 -6.2146 6.76551   2
  -4  -6  -8 11.7124 9.03042   6
  -4  -6  -8 -0.5099 4.98262   5
  -4   6  -8 24.0026 9.48784   1
   4   6   8 11.5901 4.12957   6
   4   6   8 10.2094 4.05898   6
   4   6   8 7.17629 5.30470   4
  19  -7  -8 67.4397 11.2173   5
 -19  -7   8 59.9016 9.54200   2
 -19  -7   8 72.9999 13.0144   3
 -19  -7   8 72.1311 9.79278   6
 -19   7   8 64.9482 11.4089   4
  19   7  -8 61.8699 8.67830   1
  19   7  -8 76.1758 9.34741   6
 -19   7   8 68.1989 9.34117   3
 -17  -7   8 130.781 13.2542   6
 -17  -7   8 129.289 14.0555   3
 -17  -7   8 151.599 12.3822   2
  17  -7  -8 143.166 24.3789   5
 -17   7   8 155.528 12.5107   6
 -17   7   8 144.238 14.4159   3
  17   7  -8 119.537 12.8110   6
 -17   7   8 136.001 16.5284   4
  17   7  -8 120.975 11.6607   1
 -15  -7   8 18.8290 6.87152   2
 -15  -7   8 16.3292 7.05931   6
 -15  -7   8 27.1959 8.15135   3
  15  -7  -8 13.2996 9.01634   5
  15   7  -8 19.5998 5.78128   6
  15   7  -8 16.3143 7.10186   6
 -15   7   8 11.9134 7.30593   4
  13  -7  -8 28.9911 8.27820   5
 -13  -7   8 26.7466 7.09788   2
 -13  -7   8 27.6859 6.00704   6
 -13  -7   8 25.3558 8.01915   3
 -13  -7   8 29.8203 7.59628   6
 -13   7   8 14.7922 7.48619   6
  13   7  -8 19.8879 7.04151   6
 -13   7   8 19.0441 8.12660   4
  13   7  -8 22.3712 7.82090   1
  13   7  -8 32.7445 7.49314   6
 -11  -7   8 94.8283 11.4803   3
  11  -7  -8 86.9340 11.8439   5
 -11  -7   8 95.2392 9.84714   6
 -11  -7   8 100.419 8.48035   6
 -11  -7   8 87.4117 10.6429   2
 -11   7   8 94.8714 11.5506   6
 -11   7   8 81.7253 11.2665   4
  11   7  -8 101.828 11.9942   1
  11   7  -8 87.7163 11.5100   6
  -9  -7   8 160.580 9.00537   6
  -9  -7   8 155.936 9.81242   6
   9  -7  -8 152.153 9.96364   6
   9  -7  -8 154.902 13.1117   5
  -9  -7   8 162.455 13.0058   2
  -9  -7   8 152.237 12.7954   3
   9  -7  -8 166.655 9.03604   6
   9  -7  -8 158.838 7.23435   2
   9   7  -8 141.345 12.5619   6
  -9   7   8 162.926 14.5624   4
  -9   7   8 151.788 13.4097   6
   9   7  -8 193.793 15.3945   1
   7  -7  -8 325.663 12.0640   2
   7  -7  -8 331.216 14.4057   6
  -7  -7   8 342.915 17.1975   2
   7  -7  -8 297.944 16.5762   6
  -7  -7   8 301.876 9.85354   6
   7  -7  -8 290.014 16.1646   5
  -7  -7   8 316.065 16.1538   3
  -7   7   8 306.254 16.5553   4
   7   7  -8 309.821 16.1159   6
  -7   7   8 308.760 16.5432   6
   7   7  -8 320.145 19.3905   1
   5  -7  -8 127.117 11.8985   5
   5  -7  -8 140.420 9.60658   2
   5  -7  -8 156.556 15.3860   6
   5  -7  -8 137.738 12.0506   6
  -5  -7   8 126.844 12.1882   2
   5   7  -8 119.329 14.3111   1
  -5   7   8 124.196 12.9739   4
   5   7  -8 139.707 12.4467   6
  -5   7   8 139.157 13.1560   6
  -5   7   8 137.287 12.3647   6
   3  -7  -8 5.76318 6.35744   6
  -3  -7   8 -3.6004 5.27442   2
   3  -7  -8 3.24132 7.09242   5
   3  -7  -8 6.86808 5.03789   6
  -3  -7   8 -0.4277 4.22135   4
  -3   7   8 -4.8494 6.20799   6
  -3   7   8 -4.3469 6.79396   4
   3   7  -8 2.33547 7.45839   1
  -3   7   8 -4.3051 5.45026   6
   3   7  -8 -5.3921 5.58026   6
  -1  -7   8 -4.8709 3.48472   4
   1  -7  -8 8.62328 6.38540   5
   1  -7  -8 14.7929 6.56297   6
   1  -7  -8 2.17558 6.36317   6
  -1  -7   8 13.9799 7.71345   2
  -1   7   8 -0.8250 6.28399   6
  -1   7   8 7.78762 5.62832   6
   1   7  -8 7.36595 5.72269   6
   1   7  -8 -2.5455 7.33873   1
  -1  -7  -8 26.2677 8.72837   6
   1  -7   8 25.3831 4.39014   4
  -1  -7  -8 44.7539 7.12467   5
   1  -7   8 36.5986 9.18136   2
  -1   7  -8 18.6617 8.30299   1
  -1   7  -8 33.1843 6.94540   6
   1   7   8 29.9647 6.85963   6
   1   7   8 25.4855 7.36049   6
  -3  -7  -8 153.680 9.95901   5
  -3  -7  -8 120.367 13.7642   6
   3   7   8 123.876 9.12025   6
 -16  -8   8 -4.2644 5.68352   2
 -16  -8   8 -2.7866 6.48267   3
  16  -8  -8 4.81899 7.73261   5
 -16   8   8 -1.2314 8.14957   4
 -16   8   8 -0.6827 8.42015   6
  16   8  -8 1.90576 6.27516   1
 -14  -8   8 152.927 12.1736   6
 -14  -8   8 159.706 13.9202   3
  14  -8  -8 140.501 14.8659   5
 -14  -8   8 145.796 13.4194   2
 -14   8   8 162.908 15.2706   4
  14   8  -8 142.429 13.2508   1
  14   8  -8 156.585 13.7138   6
 -14   8   8 154.076 13.6202   6
 -12  -8   8 254.984 13.8328   6
 -12  -8   8 286.043 17.0511   3
  12  -8  -8 271.286 17.3628   5
 -12  -8   8 278.512 16.6171   2
 -12  -8   8 288.446 13.1926   6
  12   8  -8 271.017 17.0044   1
  12   8  -8 290.283 16.2968   6
 -12   8   8 280.888 15.8823   6
 -12   8   8 275.598 18.1033   4
 -10  -8   8 111.461 12.3045   2
  10  -8  -8 92.3000 6.43869   2
  10  -8  -8 99.6267 6.05187   2
  10  -8  -8 111.455 11.9630   5
 -10  -8   8 92.0503 8.75698   6
 -10  -8   8 106.868 13.1659   3
 -10  -8   8 113.769 8.22985   6
  10   8  -8 120.249 12.4047   6
 -10   8   8 99.8913 12.0273   4
 -10   8   8 115.150 12.5562   6
  10   8  -8 92.7420 12.3747   1
   8  -8  -8 9.29885 4.25937   6
  -8  -8   8 4.55798 3.54443   6
  -8  -8   8 -2.2643 6.10679   2
  -8  -8   8 0.09461 4.09969   6
   8  -8  -8 6.13403 6.95330   5
  -8  -8   8 -2.2588 5.83020   3
   8  -8  -8 0.04636 4.91186   6
  -8   8   8 -0.2898 6.78466   4
   8   8  -8 0.24775 6.66537   1
   8   8  -8 10.9694 6.89542   6
  -8   8   8 4.28292 9.69380   6
   6  -8  -8 110.352 11.6128   5
  -6  -8   8 119.032 12.2365   2
   6  -8  -8 115.852 11.1170   6
   6   8  -8 114.162 14.1310   1
  -6   8   8 134.846 13.3445   6
  -6   8   8 105.179 12.0964   4
   6   8  -8 102.732 12.3160   6
   4  -8  -8 268.580 15.3005   5
   4  -8  -8 290.076 15.3056   6
  -4  -8   8 250.549 15.9571   2
   4  -8  -8 260.669 14.8483   6
   4   8  -8 271.756 15.6963   6
   4   8  -8 264.951 19.3301   1
  -4   8   8 288.057 16.9838   4
  -4   8   8 264.576 17.7127   6
  -4   8   8 263.504 16.2426   6
  -2  -8   8 322.666 17.8643   2
   2  -8  -8 360.645 17.3592   6
   2  -8  -8 297.731 15.3366   5
   2  -8  -8 304.562 16.7985   6
  -2  -8   8 280.295 13.0385   4
  -2   8   8 317.135 17.1435   4
  -2   8   8 311.041 16.9530   6
  -2   8   8 312.533 18.1273   6
   2   8  -8 284.813 19.3646   1
   2   8  -8 319.776 16.2986   6
   0  -8   8 249.329 26.0981   2
   0  -8  -8 192.439 12.0924   5
   0  -8  -8 206.039 15.9180   6
   0   8   8 213.796 15.0801   4
   0   8  -8 210.353 13.0668   6
   0   8   8 198.689 17.3465   6
  -2  -8  -8 20.7640 8.14802   6
   2  -8   8 -0.5776 6.26717   2
  -2  -8  -8 19.3581 6.07244   5
  -2   8  -8 31.5251 10.3248   1
   2   8   8 25.6942 7.74181   4
   2   8   8 11.4531 6.48700   6
 -13  -9   8 5.54319 6.84162   2
 -13  -9   8 -3.5042 5.37605   6
 -13  -9   8 -7.0293 6.39981   3
  13  -9  -8 20.7726 9.00169   5
 -13   9   8 7.42816 8.45184   4
  13   9  -8 6.80568 6.61690   6
  13   9  -8 -3.0869 6.70842   1
 -13   9   8 8.16637 7.43321   6
  11  -9  -8 2.00045 3.11902   2
  11  -9  -8 -11.895 7.05865   5
 -11  -9   8 7.81214 6.79892   2
 -11  -9   8 1.46598 6.30036   3
 -11  -9   8 7.81836 5.26216   6
  11   9  -8 19.0204 7.04501   6
 -11   9   8 7.13024 6.89498   6
  11   9  -8 8.33961 7.62938   1
 -11   9   8 3.53744 8.46611   4
  -9  -9   8 11.9073 3.87409   6
  -9  -9   8 -4.0171 6.95218   2
   9  -9  -8 9.19317 7.48450   5
  -9  -9   8 3.10321 3.90767   6
   9   9  -8 0.13837 7.50621   1
  -9   9   8 -10.254 6.52802   4
  -9   9   8 -6.1683 6.77260   6
   9   9  -8 17.1484 7.86699   6
   7  -9  -8 -4.6697 5.14366   6
  -7  -9   8 -6.5703 6.15096   2
   7  -9  -8 5.16719 7.43139   5
   7  -9  -8 12.0624 4.52852   6
  -7   9   8 1.56224 6.82791   6
  -7   9   8 -6.6552 6.95198   4
   7   9  -8 13.2038 8.48462   1
   7   9  -8 -4.5298 5.85167   6
  -5  -9   8 -0.5246 7.84703   2
   5  -9  -8 0.39549 6.38687   5
   5   9  -8 8.34113 6.63727   6
  -5   9   8 16.9481 8.11625   4
   5   9  -8 15.3785 9.26264   1
  -5   9   8 10.0783 7.85888   6
   3  -9  -8 32.0526 7.37210   5
  -3  -9   8 22.0445 14.1046   2
   3  -9  -8 21.6413 9.96974   6
   3   9  -8 34.9107 12.2341   1
  -3   9   8 21.3747 7.80585   6
   3   9  -8 45.7977 8.58448   6
  -3   9   8 27.8362 8.94427   4
   1  -9  -8 23.3215 8.52737   6
   1  -9  -8 24.3002 6.96709   5
  -1  -9   8 7.81428 7.42799   2
  -1   9   8 21.7915 8.68176   4
  -1   9   8 21.8801 8.54777   6
   1   9  -8 14.1448 9.87623   1
 -22   0   9 7.84275 6.18753   6
 -22   0   9 -10.457 6.29089   3
  22   0  -9 -9.6765 6.45163   5
  20   0  -9 6.12831 7.82802   5
 -20   0   9 9.31470 8.21660   3
 -20   0   9 3.04648 5.68313   6
 -18   0   9 3.67274 5.86087   6
 -18   0   9 0.75164 5.97513   3
  18   0  -9 -1.4371 7.16175   5
  18   0  -9 0.03063 6.38406   1
 -16   0   9 0.94721 6.53607   3
  16   0  -9 -5.7707 6.31201   1
 -16   0   9 4.43977 2.34993   2
  16   0  -9 2.31842 4.69660   6
  16   0  -9 -6.8199 4.43997   6
  16   0  -9 1.40080 4.05845   6
 -16   0   9 3.45258 6.25586   6
 -14   0   9 -2.9921 5.28398   6
  14   0  -9 -4.3643 5.14267   6
 -14   0   9 -2.0812 2.62067   2
  14   0  -9 0.78003 4.90190   6
 -14   0   9 3.41542 6.32710   3
  14   0  -9 1.77060 3.94822   6
  14   0  -9 4.64232 6.71864   1
  12   0  -9 -2.3356 4.73850   6
 -12   0   9 -1.2509 6.49418   3
  12   0  -9 5.91025 6.42771   1
 -12   0   9 3.12724 5.85232   6
 -12   0   9 -7.2368 4.72300   6
 -12   0   9 -0.3488 3.10779   2
  10   0  -9 5.59528 7.20550   1
 -10   0   9 -2.3421 4.62234   6
  10   0  -9 2.76704 5.07008   6
 -10   0   9 -6.4942 4.53897   4
 -10   0   9 -2.3656 3.49096   2
  10   0  -9 -4.5874 5.56951   6
 -10   0   9 -0.3295 5.50816   6
  -8   0   9 -0.3805 4.53505   4
  -8   0   9 -0.5963 5.17482   6
   8   0  -9 0.63804 6.04064   6
  -8   0   9 -2.1093 4.04628   2
   8   0  -9 -9.6200 5.50010   1
  -8   0   9 -6.5623 4.69919   6
   8   0  -9 -6.3839 3.58392   2
  -6   0   9 0.65994 4.49054   6
   6   0  -9 1.75030 3.97653   2
  -6   0   9 -5.2775 4.29635   2
   6   0  -9 -1.5401 6.10412   6
  -6   0   9 -1.2931 3.98951   4
  -4   0   9 -8.2243 4.65100   2
  -4   0   9 -3.1808 3.06416   4
   4   0  -9 3.02060 6.07187   6
  -4   0   9 -0.6088 4.78782   6
   4   0  -9 -0.2763 7.44337   1
  -4   0   9 -2.0634 3.87237   6
   2   0  -9 -1.8537 6.33845   1
   2   0  -9 -6.4271 5.87427   6
  -2   0   9 -7.9606 2.65693   6
   0   0  -9 2.70852 7.20529   1
   0   0  -9 -5.3579 6.17544   6
  -2   0  -9 -3.5325 5.72035   6
  -2   0  -9 10.6678 7.93454   1
  -4   0  -9 1.41662 7.51378   1
  -4   0  -9 1.31137 6.11079   6
  -6   0  -9 2.77791 6.38572   6
  -6   0  -9 -1.6472 7.61964   1
  23  -1  -9 7.62965 7.79164   5
 -23  -1   9 -1.1470 4.20610   2
 -23  -1   9 5.44548 7.80613   3
 -23  -1   9 11.4325 6.16608   6
  23   1  -9 -4.0045 7.08477   5
 -23   1   9 13.6445 6.65105   6
  21  -1  -9 6.08404 6.93052   5
 -21  -1   9 15.2488 3.95471   2
 -21  -1   9 15.5300 8.01281   3
 -21  -1   9 26.3548 7.62972   6
 -21   1   9 23.0084 7.31876   6
 -21   1   9 7.33280 7.77306   3
  21   1  -9 9.10255 7.64740   5
 -19  -1   9 133.027 7.03125   2
 -19  -1   9 129.480 11.4964   6
 -19  -1   9 145.612 15.1864   3
  19  -1  -9 114.530 12.1090   5
 -19   1   9 138.470 14.5183   3
 -19   1   9 125.940 11.8292   6
  19   1  -9 134.699 12.3637   1
 -17  -1   9 387.735 11.5801   2
  17  -1  -9 384.766 18.6698   1
 -17  -1   9 362.464 19.6412   3
  17  -1  -9 390.108 18.6583   5
 -17  -1   9 375.308 16.9731   6
  17  -1  -9 390.240 12.0103   6
 -17   1   9 387.283 20.0229   3
  17   1  -9 389.605 13.9340   6
  17   1  -9 372.369 12.7664   6
 -17   1   9 363.237 17.1293   6
  17   1  -9 364.104 18.5905   1
 -17   1   9 399.565 19.0351   4
  17   1  -9 374.225 13.5705   6
  15  -1  -9 165.354 10.1028   6
  15  -1  -9 167.899 13.9729   1
 -15  -1   9 170.668 8.15739   2
  15  -1  -9 167.480 8.99561   6
 -15  -1   9 183.135 14.8082   3
 -15  -1   9 152.578 12.2796   6
 -15   1   9 160.618 14.3493   3
  15   1  -9 166.928 13.7594   1
  15   1  -9 158.776 10.7531   6
 -15   1   9 146.825 12.0568   6
  15   1  -9 192.253 12.6534   6
  13  -1  -9 48.0065 7.10620   6
 -13  -1   9 53.5673 8.28709   6
  13  -1  -9 51.0343 7.80919   6
 -13  -1   9 45.6479 8.73971   3
 -13  -1   9 51.1693 5.83097   2
  13  -1  -9 38.1077 8.94176   1
  13  -1  -9 58.0722 6.99915   6
 -13  -1   9 61.4033 8.27311   6
 -13   1   9 49.7023 9.07761   3
 -13   1   9 47.1010 7.98404   4
  13   1  -9 52.5653 7.99145   6
  13   1  -9 34.4939 8.60536   1
 -13   1   9 46.5445 8.28684   6
  11  -1  -9 2.14852 6.89120   6
  11  -1  -9 4.06926 7.17917   1
  11  -1  -9 -1.4294 6.90379   6
 -11  -1   9 1.29136 5.48747   6
  11  -1  -9 -2.2866 4.86380   6
 -11  -1   9 -3.8435 3.84452   2
 -11  -1   9 2.35559 7.88049   3
 -11  -1   9 2.31064 5.00503   6
  11   1  -9 2.19943 5.85499   6
 -11   1   9 -5.5548 5.29940   6
  11   1  -9 1.92435 4.78557   6
 -11   1   9 2.41475 5.22846   4
 -11   1   9 -5.1531 4.49851   6
  11   1  -9 3.01072 6.80097   1
   9  -1  -9 194.701 12.6069   6
   9  -1  -9 190.776 11.7011   6
   9  -1  -9 186.324 8.56942   2
  -9  -1   9 190.658 11.3835   6
  -9  -1   9 201.766 12.1571   6
   9  -1  -9 212.291 15.8066   1
  -9  -1   9 207.497 10.2203   2
   9   1  -9 198.860 15.3749   1
   9   1  -9 182.287 12.7651   6
  -9   1   9 204.763 11.4368   4
  -9   1   9 185.039 12.4507   6
  -9   1   9 188.650 11.7085   6
   7  -1  -9 320.034 12.0351   2
  -7  -1   9 311.883 12.1778   4
  -7  -1   9 309.596 13.1651   6
   7  -1  -9 289.928 15.0206   6
  -7  -1   9 291.744 13.0342   2
   7  -1  -9 343.046 16.4505   6
  -7   1   9 291.893 14.2909   6
  -7   1   9 331.373 14.5903   6
   7   1  -9 321.661 12.8226   2
   7   1  -9 292.387 14.9961   6
  -7   1   9 324.501 13.0038   4
  -5  -1   9 273.413 13.1263   6
   5  -1  -9 279.334 12.0563   2
  -5  -1   9 272.291 12.9131   2
  -5  -1   9 269.736 9.71572   4
  -5  -1   9 256.406 16.4793   6
   5  -1  -9 224.218 14.3311   6
   5  -1  -9 252.866 17.2473   1
  -5   1   9 270.351 10.7483   4
   5   1  -9 259.700 14.0196   6
  -5   1   9 260.565 12.0836   6
  -5   1   9 252.254 13.7314   6
   5   1  -9 264.714 17.1359   1
  -3  -1   9 226.161 6.89891   4
  -3  -1   9 235.888 6.94683   4
   3  -1  -9 222.094 14.1342   6
  -3  -1   9 220.036 12.9080   2
  -3  -1   9 239.310 8.02081   6
  -3  -1   9 240.337 11.5533   6
   3  -1  -9 240.316 17.3709   1
   3   1  -9 229.116 17.3208   1
  -3   1   9 243.373 11.1543   6
  -3   1   9 234.408 9.15477   4
   3   1  -9 253.837 22.5598   6
  -3   1   9 234.728 10.2901   6
   1  -1  -9 35.1318 9.58307   1
  -1  -1   9 49.1743 8.06364   2
   1  -1  -9 43.7371 8.52636   6
   1   1  -9 47.1376 8.36422   6
  -1   1   9 39.8426 4.00699   4
   1   1  -9 26.0544 9.01657   1
  -1  -1  -9 37.0516 9.28059   1
  -1   1  -9 24.4647 9.53615   1
  -1   1  -9 40.4444 7.90599   6
  -3  -1  -9 56.6963 11.2744   1
  -3  -1  -9 89.2182 10.6250   6
  -3   1  -9 53.5148 10.8326   1
  -3   1  -9 76.3977 9.92834   6
  -5  -1  -9 36.9028 10.1284   1
  -5  -1  -9 30.1117 7.80413   6
  -5   1  -9 46.8322 8.16882   6
  -5   1  -9 17.2451 9.29637   1
 -22  -2   9 25.1753 6.80784   6
  22  -2  -9 27.0969 8.92532   5
 -22  -2   9 24.2298 4.84225   2
 -22  -2   9 21.3162 15.3984   3
  22   2  -9 22.8542 8.57809   5
 -22   2   9 16.8572 8.43310   3
 -22   2   9 29.1947 9.91693   6
 -20  -2   9 16.6779 4.60336   2
 -20  -2   9 7.41301 7.24291   3
  20  -2  -9 19.5136 9.23575   5
 -20  -2   9 22.5534 7.45805   6
 -20   2   9 25.0362 8.16284   6
  20   2  -9 19.1279 6.42900   1
 -20   2   9 20.7789 7.72549   4
 -20   2   9 11.8092 7.74681   3
 -18  -2   9 37.7169 8.05132   6
 -18  -2   9 50.1285 6.33516   2
 -18  -2   9 50.9587 9.72617   3
  18  -2  -9 47.9837 10.4162   5
 -18   2   9 45.7437 9.47603   4
 -18   2   9 47.8212 9.70140   3
  18   2  -9 45.1895 6.47117   6
 -18   2   9 56.8947 9.27748   6
  18   2  -9 43.7636 8.54715   1
  18   2  -9 46.7788 6.15464   6
  16  -2  -9 264.252 15.7624   5
 -16  -2   9 270.950 16.2234   3
 -16  -2   9 248.465 14.7403   6
  16  -2  -9 263.177 10.4695   6
 -16  -2   9 243.506 11.9058   2
 -16   2   9 261.343 14.5926   6
 -16   2   9 261.454 16.2883   4
  16   2  -9 259.206 12.6720   6
  16   2  -9 245.252 15.5369   1
 -16   2   9 266.393 16.0409   3
  14  -2  -9 282.214 22.5525   1
 -14  -2   9 285.615 17.0726   3
 -14  -2   9 293.684 11.6345   2
 -14  -2   9 268.728 14.5107   6
  14  -2  -9 283.522 11.6122   6
  14  -2  -9 254.204 15.6171   5
 -14  -2   9 276.848 14.0383   6
  14  -2  -9 269.119 12.1741   6
 -14   2   9 255.315 14.5261   6
  14   2  -9 266.419 13.9241   6
  14   2  -9 287.926 16.3055   1
 -14   2   9 269.438 15.2692   4
 -14   2   9 272.517 15.9323   3
 -12  -2   9 428.440 17.3962   6
 -12  -2   9 414.630 16.4872   6
 -12  -2   9 432.968 14.4798   2
  12  -2  -9 441.345 16.1189   6
 -12  -2   9 447.760 20.3658   3
  12  -2  -9 419.349 14.8206   6
 -12   2   9 437.846 17.8390   4
  12   2  -9 397.548 19.5716   6
 -12   2   9 427.760 19.9442   3
  12   2  -9 429.628 19.8279   1
  12   2  -9 424.231 16.3337   6
 -12   2   9 389.425 17.1895   6
 -10  -2   9 210.186 11.5338   6
 -10  -2   9 181.678 10.4164   2
 -10  -2   9 223.525 19.8056   6
  10  -2  -9 185.127 11.3580   6
 -10   2   9 206.098 12.2139   4
 -10   2   9 196.551 12.7963   6
  10   2  -9 184.815 12.5101   6
 -10   2   9 191.781 12.6073   6
  10   2  -9 176.792 14.0287   1
  -8  -2   9 91.3449 15.9710   3
   8  -2  -9 77.3636 13.8404   1
   8  -2  -9 84.8937 6.65779   2
  -8  -2   9 71.6015 9.53758   6
   8  -2  -9 91.8379 10.1699   6
   8  -2  -9 82.7123 10.0032   6
  -8  -2   9 89.7183 8.42488   6
   8  -2  -9 95.5291 10.6394   6
  -8  -2   9 78.3056 8.75699   2
  -8   2   9 83.6468 9.49843   6
  -8   2   9 86.8931 9.92062   6
  -8   2   9 78.5276 8.46844   4
   8   2  -9 74.7276 9.43216   6
   8   2  -9 83.9076 12.6376   6
  -6  -2   9 307.611 14.0099   2
   6  -2  -9 320.340 14.8704   6
   6  -2  -9 327.507 18.7426   1
   6  -2  -9 296.303 15.2839   6
  -6  -2   9 300.435 11.1152   4
   6  -2  -9 321.395 16.1677   2
  -6  -2   9 322.540 12.5604   6
   6  -2  -9 307.926 16.2993   6
  -6   2   9 308.517 13.0135   4
   6   2  -9 346.215 18.8088   1
   6   2  -9 311.727 15.3196   6
  -6   2   9 327.855 15.9443   6
  -4  -2   9 257.157 8.81760   6
  -4  -2   9 278.061 10.2097   4
   4  -2  -9 256.050 16.7901   1
   4  -2  -9 267.430 12.3520   2
   4  -2  -9 260.127 15.1335   6
  -4  -2   9 271.391 9.04703   6
  -4  -2   9 256.041 13.9736   2
  -4  -2   9 259.917 8.39534   4
  -4   2   9 244.003 12.4537   6
   4   2  -9 284.969 16.1192   6
   4   2  -9 282.172 17.6015   1
  -4   2   9 268.492 11.3340   4
  -4   2   9 262.319 12.0238   6
   2  -2  -9 171.396 14.4546   1
  -2  -2   9 137.787 11.6400   2
   2  -2  -9 153.243 13.0434   6
  -2   2   9 159.969 8.35717   4
   2   2  -9 168.217 12.3508   6
  -2   2   9 134.438 8.45308   6
   2   2  -9 144.689 13.6040   1
  -2   2   9 144.394 9.41459   6
   0  -2  -9 -2.3215 6.21814   6
   0  -2  -9 1.71756 6.88320   1
   0  -2   9 0.40086 6.32791   2
   0   2   9 7.92769 3.02756   4
   0   2  -9 5.29051 6.54688   1
   0   2  -9 6.52706 5.80497   6
   2  -2   9 165.494 13.4034   2
  -2  -2  -9 160.886 15.5470   1
  -2  -2  -9 156.800 13.5381   6
  -2   2  -9 140.022 11.7189   6
  -2   2  -9 141.425 14.8400   1
  -4  -2  -9 186.864 15.8971   1
  -4  -2  -9 171.171 15.8712   6
  -4   2  -9 173.008 11.7673   6
  -4   2  -9 161.532 15.9584   1
  -6  -2  -9 135.055 15.3233   1
  -6   2  -9 138.761 15.5549   1
 -21  -3   9 2.02532 4.36560   2
 -21  -3   9 -0.7169 5.75951   6
 -21  -3   9 7.07682 10.9138   3
  21  -3  -9 6.51707 8.07182   5
  21   3  -9 -1.5334 5.18568   1
 -21   3   9 -5.1953 6.61149   4
 -21   3   9 7.95709 8.01385   3
 -21   3   9 -0.6768 5.85013   6
 -19  -3   9 24.7921 9.14772   3
 -19  -3   9 49.4183 9.27445   6
 -19  -3   9 32.0406 5.91984   2
  19  -3  -9 38.9015 9.58196   5
 -19   3   9 28.6647 7.95738   3
  19   3  -9 42.8604 5.98804   6
  19   3  -9 34.4240 7.42566   1
 -19   3   9 73.6307 13.8937   6
 -19   3   9 19.2365 7.59041   4
  19   3  -9 29.8343 5.88238   6
 -17  -3   9 258.183 15.8603   6
  17  -3  -9 273.583 17.1849   5
 -17  -3   9 284.376 16.9752   3
 -17  -3   9 267.918 12.3490   2
 -17   3   9 277.982 16.7782   4
  17   3  -9 277.639 15.2510   1
 -17   3   9 278.268 16.1949   3
  17   3  -9 266.528 13.3693   6
 -17   3   9 263.260 15.0471   6
  15  -3  -9 575.481 14.1810   6
  15  -3  -9 561.513 22.7443   5
 -15  -3   9 587.989 18.1791   2
 -15  -3   9 600.730 28.1495   6
 -15  -3   9 587.770 23.8012   3
 -15   3   9 562.087 22.2776   4
 -15   3   9 537.467 20.4556   6
  15   3  -9 597.125 28.2374   6
  15   3  -9 550.954 19.4745   6
  15   3  -9 570.789 22.6448   1
 -15   3   9 585.637 23.2332   3
 -13  -3   9 301.977 14.1991   6
  13  -3  -9 299.644 12.8025   6
 -13  -3   9 311.192 13.6512   2
 -13  -3   9 323.075 18.0195   3
  13  -3  -9 333.542 16.7469   6
  13  -3  -9 303.775 16.7898   5
 -13   3   9 302.879 16.6928   4
  13   3  -9 292.755 13.9432   6
 -13   3   9 318.147 16.0510   6
 -13   3   9 298.376 16.3238   3
  13   3  -9 316.641 15.2198   6
  13   3  -9 292.878 17.0264   1
 -11  -3   9 4.61518 4.71793   6
 -11  -3   9 -0.2661 5.25485   6
 -11  -3   9 2.99715 4.53387   2
  11  -3  -9 6.30004 4.43735   6
  11  -3  -9 9.07802 7.94176   1
 -11  -3   9 -0.6197 6.82825   3
  11  -3  -9 4.48304 6.07310   6
 -11   3   9 -3.8893 6.46133   3
 -11   3   9 2.42258 5.81044   6
  11   3  -9 0.95639 5.84380   1
 -11   3   9 2.79414 5.52256   4
  11   3  -9 6.17663 5.94153   6
   9  -3  -9 220.749 11.7471   6
   9  -3  -9 220.422 16.9199   1
  -9  -3   9 222.152 12.2953   2
  -9  -3   9 208.064 10.8592   6
   9  -3  -9 217.022 13.8022   6
   9  -3  -9 216.189 7.89103   2
  -9  -3   9 212.387 10.9669   4
  -9  -3   9 206.495 11.7883   6
   9   3  -9 215.022 23.2537   1
  -9   3   9 214.401 12.3610   4
   9   3  -9 209.955 13.5635   6
  -9   3   9 212.694 13.4132   6
  -9   3   9 205.214 15.7720   6
   7  -3  -9 651.281 25.8113   1
   7  -3  -9 624.668 21.3551   6
  -7  -3   9 673.109 21.3592   2
  -7  -3   9 609.985 21.6043   6
  -7  -3   9 653.711 18.5081   6
   7  -3  -9 671.814 21.8799   6
  -7  -3   9 619.478 17.7402   4
   7  -3  -9 609.238 16.7987   2
   7  -3  -9 634.806 20.7244   6
  -7   3   9 639.297 20.7316   6
  -7   3   9 634.480 19.9228   4
  -7   3   9 646.502 30.6865   6
   7   3  -9 657.864 25.0780   1
   7   3  -9 646.846 21.6213   6
  -5  -3   9 374.026 16.5584   2
   5  -3  -9 362.100 16.0881   6
   5  -3  -9 362.513 13.3284   2
   5  -3  -9 393.750 20.5947   1
   5  -3  -9 362.843 16.6337   6
   5  -3  -9 327.985 16.5848   6
  -5  -3   9 374.672 10.9112   6
  -5  -3   9 358.409 11.4143   4
   5   3  -9 369.580 19.0057   1
  -5   3   9 347.541 14.1278   4
  -5   3   9 350.747 15.7375   6
   5   3  -9 356.269 16.4398   6
   3  -3  -9 22.9002 7.76429   6
   3  -3  -9 18.0333 7.80493   6
  -3  -3   9 13.5678 7.07893   2
   3  -3  -9 14.1480 8.82236   1
   3   3  -9 22.1279 6.89846   6
  -3   3   9 14.6268 6.15737   6
  -3   3   9 19.7592 5.33903   4
  -3   3   9 25.7954 7.97022   6
   3   3  -9 8.36422 8.00738   1
   1  -3  -9 5.84904 7.11546   1
   1  -3  -9 3.86937 6.98186   6
  -1  -3   9 9.15579 6.55666   2
   1  -3  -9 1.81405 6.55237   6
   1   3  -9 5.95177 5.87936   6
   1   3  -9 -6.7805 6.25013   1
  -1   3   9 4.04923 4.86267   6
  -1   3   9 3.39765 4.06892   4
  -1   3   9 3.37505 4.08594   6
  -1  -3  -9 14.5396 7.48810   6
  -1  -3  -9 3.61498 6.99735   6
  -1  -3  -9 -6.0865 6.81621   1
   1  -3   9 -4.7627 5.31231   2
   1   3   9 -6.2234 3.23026   4
  -1   3  -9 -0.8211 5.84867   6
  -1   3  -9 -7.2751 6.76332   1
  -3  -3  -9 29.5801 8.43333   6
  -3  -3  -9 37.7467 8.88958   6
  -3  -3  -9 36.4411 9.81515   1
   3  -3   9 25.0814 8.35211   2
  -3   3  -9 35.0044 9.74008   1
  -3   3  -9 28.7005 6.99939   6
  -5  -3  -9 2.87519 7.97779   1
  -5  -3  -9 5.42520 8.01179   6
  -5  -3  -9 18.3608 8.21632   6
   5  -3   9 -10.033 10.5863   2
  -5   3  -9 0.45173 7.72174   1
 -20  -4   9 2.37593 8.29962   3
 -20  -4   9 11.7871 5.24360   2
 -20  -4   9 22.7853 7.79853   6
  20  -4  -9 11.0222 7.70653   5
  20   4  -9 18.5248 5.02833   6
 -20   4   9 11.0797 6.53878   6
 -20   4   9 11.0160 7.78676   4
  20   4  -9 -1.1474 5.63540   1
  20   4  -9 21.3478 5.45553   6
 -20   4   9 12.0573 8.08367   3
 -18  -4   9 49.5277 7.42584   2
 -18  -4   9 49.3799 10.3939   3
  18  -4  -9 31.0415 8.99676   5
 -18  -4   9 46.7112 9.08704   6
  18   4  -9 41.9376 8.46786   1
  18   4  -9 34.6950 6.07699   6
  18   4  -9 48.9249 7.83696   6
 -18   4   9 40.7938 9.25552   4
 -18   4   9 46.4272 9.82668   3
 -18   4   9 47.1418 8.86889   6
 -16  -4   9 58.4294 7.99901   2
 -16  -4   9 77.9495 10.1278   6
  16  -4  -9 77.2066 11.8019   5
 -16  -4   9 72.6411 11.7031   3
 -16   4   9 69.7660 9.88593   6
 -16   4   9 53.5472 9.73094   3
  16   4  -9 55.8485 8.16632   6
  16   4  -9 61.6216 9.46230   1
  16   4  -9 75.0779 8.66823   6
 -16   4   9 40.0487 9.26763   4
 -14  -4   9 180.572 11.5958   2
  14  -4  -9 203.200 14.7291   5
 -14  -4   9 198.789 12.3051   6
 -14  -4   9 195.555 15.6038   3
  14  -4  -9 201.839 8.70888   6
 -14  -4   9 197.160 13.1995   6
  14  -4  -9 206.474 11.9532   6
 -14   4   9 215.074 14.9815   3
  14   4  -9 186.524 14.4197   1
 -14   4   9 192.196 13.8903   6
  14   4  -9 214.296 12.2592   6
 -14   4   9 211.760 14.9696   4
  14   4  -9 187.706 13.3055   6
 -12  -4   9 80.8499 8.71125   6
  12  -4  -9 96.2453 12.0742   5
 -12  -4   9 90.1781 9.51683   2
  12  -4  -9 98.2728 8.95871   6
 -12  -4   9 86.7980 11.6904   3
  12  -4  -9 83.8675 11.2525   6
 -12  -4   9 86.6858 9.91717   6
  12   4  -9 110.056 14.7808   6
 -12   4   9 70.3785 9.70638   6
 -10  -4   9 129.208 10.4141   6
  10  -4  -9 149.800 9.86233   6
  10  -4  -9 139.971 5.10620   2
  10  -4  -9 156.946 13.9387   5
 -10  -4   9 152.923 9.97430   6
 -10  -4   9 122.866 10.7105   2
 -10  -4   9 134.752 12.3548   3
  10  -4  -9 142.880 11.1904   6
  10   4  -9 132.151 12.1404   6
  10   4  -9 150.194 14.0317   1
 -10   4   9 147.058 12.7966   6
 -10   4   9 153.920 12.0717   4
   8  -4  -9 70.8383 8.52791   6
  -8  -4   9 76.6281 7.47971   6
   8  -4  -9 80.3365 11.6277   5
  -8  -4   9 72.3307 8.75803   2
   8  -4  -9 76.2999 9.90421   6
  -8  -4   9 74.6301 8.05158   6
  -8  -4   9 67.4574 7.30820   4
   8  -4  -9 70.1739 6.10088   2
  -8   4   9 80.1749 12.2418   6
   8   4  -9 65.7090 10.9134   1
   8   4  -9 88.1103 10.5144   6
  -8   4   9 67.6319 9.69406   6
  -8   4   9 84.3040 9.68678   4
   6  -4  -9 11.1340 8.58328   1
  -6  -4   9 6.30973 4.03692   6
   6  -4  -9 7.75179 4.22093   2
  -6  -4   9 15.6880 4.06316   6
   6  -4  -9 27.3646 6.70075   6
  -6  -4   9 9.13199 4.40621   4
  -6  -4   9 5.59017 5.85082   2
   6  -4  -9 8.81072 7.04189   6
  -6   4   9 9.74674 5.75971   4
   6   4  -9 12.8426 6.38361   6
   6   4  -9 10.9868 7.04815   1
  -6   4   9 6.93878 6.51043   6
  -6   4   9 20.8128 6.27146   6
  -4  -4   9 317.376 10.0788   4
   4  -4  -9 313.339 15.4617   2
   4  -4  -9 333.553 15.4229   6
   4  -4  -9 301.693 17.8979   1
  -4  -4   9 330.218 16.4799   2
   4  -4  -9 300.881 18.5046   6
  -4   4   9 309.833 14.3745   4
   4   4  -9 290.551 17.2936   1
   4   4  -9 315.420 20.7427   6
  -4   4   9 306.211 14.4144   6
   2  -4  -9 20.6307 8.70554   1
   2  -4  -9 10.1196 7.00597   6
  -2  -4   9 15.5626 6.54010   2
   2  -4  -9 9.40241 7.38144   6
  -2   4   9 14.0178 5.32889   4
  -2   4   9 4.80562 5.48509   6
   2   4  -9 16.6802 6.55415   6
   2   4  -9 9.07455 7.26548   1
   0  -4   9 1.28786 6.17145   2
   0  -4  -9 -0.9799 7.35153   6
   0  -4  -9 6.74250 7.37739   1
   0  -4  -9 4.70175 7.32152   6
   0   4  -9 0.72527 5.56805   6
   0   4   9 4.45187 4.71070   6
   0   4   9 -4.5432 4.20721   4
   0   4   9 1.97567 4.07385   6
   0   4  -9 -1.2128 6.35648   1
   2  -4   9 51.4954 9.83259   2
  -2  -4  -9 61.6866 11.2493   1
  -2  -4  -9 61.3735 10.5559   6
  -2  -4  -9 73.7389 11.1627   6
  -2   4  -9 79.6006 9.32022   6
  -2   4  -9 52.9542 10.0350   1
   2   4   9 61.1683 7.99379   4
  -4  -4  -9 7.82873 7.32870   6
  -4  -4  -9 -0.3334 7.43896   1
  -4  -4  -9 17.2079 8.04507   6
   4  -4   9 13.0969 8.65398   2
  -4   4  -9 7.93661 7.87740   1
 -19  -5   9 73.2630 10.4273   2
  19  -5  -9 80.3934 13.1190   5
 -19  -5   9 65.3891 9.45724   6
 -19  -5   9 53.2051 10.3969   3
  19   5  -9 71.5533 9.22189   1
 -19   5   9 72.5315 10.8345   3
  19   5  -9 82.7298 14.3329   6
 -19   5   9 69.6899 11.9291   4
 -17  -5   9 162.053 15.3309   3
 -17  -5   9 148.985 11.2843   2
 -17  -5   9 146.889 12.7665   6
  17  -5  -9 139.024 15.4968   5
 -17   5   9 163.949 12.9634   6
 -17   5   9 145.555 14.4758   4
  17   5  -9 193.696 10.7276   6
  17   5  -9 131.617 13.0594   1
  17   5  -9 146.400 11.7932   6
 -17   5   9 144.628 12.9668   3
 -15  -5   9 92.4692 10.0112   2
 -15  -5   9 97.1627 11.2174   6
 -15  -5   9 91.4256 12.1933   3
  15  -5  -9 86.3116 11.8710   5
 -15   5   9 88.5765 10.7117   6
  15   5  -9 104.092 10.0280   6
 -15   5   9 87.7692 11.4315   3
  15   5  -9 80.2247 10.0097   6
 -15   5   9 119.622 12.9198   4
 -13  -5   9 73.9831 9.27295   2
  13  -5  -9 84.5379 11.2337   5
 -13  -5   9 76.1441 9.59742   6
  13  -5  -9 90.0558 7.22756   6
 -13  -5   9 106.127 12.6775   3
 -13  -5   9 84.1436 8.48898   6
  13  -5  -9 58.8051 6.81274   6
  13   5  -9 73.7621 10.2749   1
 -13   5   9 86.4433 10.3750   6
  13   5  -9 65.5407 10.8226   6
 -13   5   9 94.0409 11.8770   4
  13   5  -9 86.6441 10.6423   6
 -11  -5   9 23.1709 8.25335   3
 -11  -5   9 11.5714 5.51351   6
  11  -5  -9 20.1529 5.88634   6
  11  -5  -9 10.8371 8.15725   5
 -11  -5   9 27.3266 5.90708   6
 -11  -5   9 16.4002 6.30972   2
 -11   5   9 17.9320 7.65199   6
 -11   5   9 21.0658 7.17559   4
  11   5  -9 17.1036 7.93101   1
  11   5  -9 38.5879 13.0896   6
   9  -5  -9 556.036 13.9241   2
   9  -5  -9 597.000 20.0066   6
  -9  -5   9 604.139 22.9532   3
   9  -5  -9 596.373 23.1892   5
  -9  -5   9 575.121 17.9943   6
  -9  -5   9 560.915 20.7363   2
   9  -5  -9 612.142 18.9811   6
  -9  -5   9 569.905 17.5538   6
   9   5  -9 614.599 21.7908   6
  -9   5   9 578.192 21.6751   6
   9   5  -9 605.967 24.6417   1
  -9   5   9 594.943 21.5671   4
  -7  -5   9 410.757 12.4015   6
   7  -5  -9 393.883 17.4419   6
   7  -5  -9 412.765 16.0877   6
  -7  -5   9 405.196 12.8210   6
  -7  -5   9 437.350 18.3419   2
   7  -5  -9 415.198 13.1085   2
  -7  -5   9 409.130 14.7964   4
   7  -5  -9 416.378 18.9652   5
   7   5  -9 407.021 17.9377   6
  -7   5   9 389.051 18.0098   6
  -7   5   9 417.919 17.7204   4
  -7   5   9 403.072 17.5767   6
   7   5  -9 403.924 20.7327   1
   5  -5  -9 91.6675 11.7653   5
  -5  -5   9 101.899 7.81313   4
   5  -5  -9 101.712 11.4240   6
  -5  -5   9 97.7536 11.2621   2
   5  -5  -9 109.857 8.29815   2
   5  -5  -9 110.127 10.4805   6
  -5   5   9 95.4924 11.2711   6
   5   5  -9 76.6910 11.9713   1
   5   5  -9 106.960 11.1419   6
  -5   5   9 105.919 10.5104   6
  -5   5   9 97.3451 10.5846   4
  -3  -5   9 33.4029 7.83373   2
   3  -5  -9 17.5126 8.02372   6
  -3  -5   9 19.8681 3.69675   4
   3  -5  -9 19.2034 12.7236   5
  -3   5   9 25.3188 7.07451   6
  -3   5   9 27.4916 7.47181   6
  -3   5   9 28.2691 6.97361   4
   3   5  -9 22.6419 8.55077   1
   3   5  -9 45.6823 8.44239   6
   1  -5  -9 21.4126 8.43472   6
   1  -5  -9 22.0602 9.03364   5
  -1  -5   9 16.6162 7.44965   2
  -1   5   9 22.7907 6.82143   6
   1   5  -9 22.1182 7.10623   6
  -1   5   9 31.5225 6.36716   4
   1   5  -9 47.4408 10.9159   1
   1  -5   9 101.685 12.4306   2
  -1  -5  -9 112.760 11.2492   5
  -1  -5  -9 121.403 17.7440   6
   1   5   9 152.000 8.85670   6
  -1   5  -9 167.553 11.6273   6
   1   5   9 144.176 10.2839   4
  -1   5  -9 104.837 13.9295   1
   1   5   9 136.406 9.59871   6
   3  -5   9 29.9040 14.1119   2
  -3  -5  -9 14.0117 6.79275   5
   3   5   9 36.9540 6.55366   4
  -3   5  -9 26.1494 9.55938   1
 -18  -6   9 -8.6692 5.00093   2
  18  -6  -9 7.53036 9.57340   5
 -18  -6   9 2.87285 7.68209   3
 -18  -6   9 1.31020 6.36898   6
 -18   6   9 7.22021 6.72391   3
  18   6  -9 3.70096 7.33619   6
 -18   6   9 18.1478 7.30557   6
 -16  -6   9 2.09331 5.34577   6
 -16  -6   9 7.91205 6.11318   6
 -16  -6   9 -4.4835 6.77230   3
  16  -6  -9 11.3174 8.27345   5
 -16  -6   9 12.4063 6.45961   2
 -16   6   9 2.92541 6.99798   6
  16   6  -9 9.20374 7.03753   1
 -16   6   9 -4.9911 7.29265   4
  16   6  -9 17.8902 9.22257   6
 -16   6   9 12.6418 7.34402   3
  16   6  -9 5.49542 6.32850   6
  14  -6  -9 99.5544 13.1046   5
 -14  -6   9 83.4898 10.3925   6
 -14  -6   9 91.4238 9.00487   6
 -14  -6   9 78.4293 11.4545   3
 -14  -6   9 92.1005 10.2483   2
  14   6  -9 100.626 11.4235   6
 -14   6   9 99.3335 11.8149   6
  14   6  -9 112.141 11.2551   6
  14   6  -9 90.5699 11.5350   1
 -14   6   9 84.9520 11.9712   4
 -12  -6   9 58.9399 10.2635   3
  12  -6  -9 60.4812 6.60448   6
  12  -6  -9 58.3695 10.4211   5
  12  -6  -9 54.9786 6.39331   6
 -12  -6   9 52.2210 8.59909   2
 -12  -6   9 45.3007 7.83654   6
 -12  -6   9 83.0013 8.21013   6
  12   6  -9 46.3547 9.51088   1
 -12   6   9 57.7528 9.51912   6
 -12   6   9 46.9606 9.56902   4
  12   6  -9 57.9886 9.72247   6
  10  -6  -9 21.3068 6.06471   6
 -10  -6   9 10.0187 5.41413   6
 -10  -6   9 6.76375 5.88383   2
 -10  -6   9 4.03769 6.67661   3
 -10  -6   9 25.1132 5.22027   6
  10  -6  -9 27.2196 8.75557   5
 -10   6   9 25.3383 7.70214   4
 -10   6   9 19.4854 7.96730   6
  10   6  -9 20.8963 8.69179   1
  10   6  -9 25.3755 7.69106   6
   8  -6  -9 5.76951 5.01793   6
  -8  -6   9 4.81729 6.07883   2
  -8  -6   9 -1.6092 4.03110   6
   8  -6  -9 -3.8465 5.83132   6
   8  -6  -9 -9.1427 6.61980   5
  -8  -6   9 1.05054 3.60126   6
   8  -6  -9 4.63085 3.48721   2
  -8  -6   9 -3.8803 6.04629   3
   8   6  -9 0.88146 6.14623   6
   8   6  -9 -6.1682 7.02645   1
  -8   6   9 4.08544 6.51484   4
  -8   6   9 -9.1527 6.38961   6
   6  -6  -9 44.3428 8.97907   5
  -6  -6   9 57.3678 7.12028   4
   6  -6  -9 54.7486 6.24964   2
   6  -6  -9 37.4647 8.24886   6
   6  -6  -9 69.2381 8.46713   6
  -6  -6   9 47.0521 8.79970   2
   6   6  -9 48.3557 8.87820   6
  -6   6   9 60.4639 9.00741   6
  -6   6   9 58.8063 9.83648   6
   6   6  -9 45.4047 10.6534   1
   4  -6  -9 414.510 19.2880   6
   4  -6  -9 448.266 23.3971   6
   4  -6  -9 427.177 18.4135   5
  -4  -6   9 448.784 19.9560   2
  -4  -6   9 438.499 13.9773   4
   4   6  -9 438.394 22.0980   1
  -4   6   9 472.928 19.4682   6
  -4   6   9 430.827 18.3389   4
   4   6  -9 420.059 20.6152   6
  -4   6   9 440.872 17.6493   6
  -2  -6   9 124.754 12.9791   2
  -2  -6   9 128.316 6.47963   4
   2  -6  -9 127.183 12.0068   5
   2  -6  -9 120.062 13.4013   6
   2   6  -9 138.554 11.8676   6
   2   6  -9 123.294 14.1066   1
  -2   6   9 145.382 12.2686   4
  -2   6   9 124.631 11.8526   6
  -2   6   9 134.894 10.0402   6
   0  -6   9 11.1455 6.58549   2
   0  -6  -9 8.75342 7.46668   6
   0   6  -9 9.62133 5.57088   6
   0   6   9 12.5175 6.11197   6
   0   6   9 14.8134 6.29749   6
   0   6  -9 -4.3869 7.11962   1
   0   6   9 -1.1603 5.33148   4
  -2  -6  -9 1.43307 7.21636   6
  -2  -6  -9 1.10563 5.48950   5
   2  -6   9 -4.7582 9.15131   2
   2   6   9 2.49916 4.91278   6
  -2   6  -9 2.91951 13.7834   1
   2   6   9 4.37475 5.81769   4
   2   6   9 -0.9517 4.99874   6
  17  -7  -9 71.1850 11.7397   5
 -17  -7   9 61.7692 9.50979   2
 -17  -7   9 47.4967 10.1519   3
 -17   7   9 58.0099 11.1750   4
 -17   7   9 72.3424 10.7424   6
  17   7  -9 67.7870 9.98498   1
  17   7  -9 70.2479 9.87766   6
 -15  -7   9 138.072 11.9468   2
 -15  -7   9 142.875 14.5622   3
  15  -7  -9 146.428 22.8682   5
 -15  -7   9 140.764 12.9840   6
 -15   7   9 125.131 12.8891   6
  15   7  -9 153.624 12.9802   6
  15   7  -9 131.504 13.3710   1
 -15   7   9 129.373 14.4270   4
 -13  -7   9 28.8395 6.27509   6
 -13  -7   9 23.0320 7.11127   2
  13  -7  -9 20.1375 8.21655   5
 -13  -7   9 19.1827 7.00851   6
 -13  -7   9 27.8989 8.25481   3
 -13   7   9 28.2918 8.23922   6
  13   7  -9 33.7232 8.69493   6
 -13   7   9 5.77656 7.71345   4
  13   7  -9 19.2832 8.53738   1
 -11  -7   9 2.28512 6.78417   3
 -11  -7   9 6.44727 4.58129   6
  11  -7  -9 8.59939 4.65646   6
  11  -7  -9 8.05643 5.65179   6
  11  -7  -9 3.17539 6.80627   5
 -11  -7   9 5.25346 5.86771   2
 -11  -7   9 6.35975 5.27510   6
 -11   7   9 7.40986 7.47846   6
 -11   7   9 -3.9384 6.90568   4
  11   7  -9 4.13561 6.73081   6
  11   7  -9 3.04574 7.27916   1
  -9  -7   9 18.1455 4.42200   6
  -9  -7   9 12.3471 4.91195   6
   9  -7  -9 10.6428 5.43523   6
  -9  -7   9 -0.2307 6.33271   2
   9  -7  -9 10.1279 8.11378   5
   9  -7  -9 -0.5805 3.14002   2
  -9  -7   9 3.68961 7.03882   3
  -9   7   9 2.41494 6.72955   4
  -9   7   9 -0.2653 6.85279   6
   9   7  -9 9.02123 7.01281   6
   9   7  -9 7.68009 7.79939   1
   7  -7  -9 29.9840 7.76975   6
  -7  -7   9 48.1780 9.52501   2
   7  -7  -9 30.0151 6.50345   2
   7  -7  -9 51.5504 9.92845   5
   7   7  -9 64.6969 9.70140   6
  -7   7   9 43.1862 9.24077   6
  -7   7   9 33.1787 8.11829   4
   7   7  -9 38.8280 10.0461   1
   5  -7  -9 139.535 13.0068   6
  -5  -7   9 116.794 12.4240   2
   5  -7  -9 138.380 12.0408   5
  -5  -7   9 95.2917 9.61105   4
   5   7  -9 151.652 12.5369   6
  -5   7   9 138.581 13.2971   6
  -5   7   9 130.997 12.8835   4
  -5   7   9 133.235 12.1163   6
   5   7  -9 142.064 15.6077   1
   3  -7  -9 38.8904 9.21343   6
  -3  -7   9 46.0885 10.0368   2
   3  -7  -9 35.2574 8.21599   5
  -3   7   9 35.5405 8.96806   6
  -3   7   9 33.8654 8.26703   4
   3   7  -9 29.5088 9.48741   1
   1  -7  -9 3.51029 6.36445   5
   1  -7  -9 -5.0783 7.30948   6
  -1  -7   9 8.63356 7.27249   2
   1   7  -9 -0.2579 12.8922   1
  -1   7   9 -1.2041 6.22339   4
   1   7  -9 15.4301 6.83454   6
   1  -7   9 -1.3629 5.89388   2
  -1  -7  -9 4.10877 7.65807   6
  -1   7  -9 -6.9135 6.19489   1
   1   7   9 -9.7431 5.25015   4
   1   7   9 3.57137 5.77180   6
  14  -8  -9 29.4166 9.46902   5
 -14  -8   9 28.2568 7.30443   6
 -14  -8   9 19.2231 8.46410   3
 -14  -8   9 31.8432 8.07101   2
 -14   8   9 32.6732 8.79108   6
 -14   8   9 24.9253 10.6984   4
  14   8  -9 20.0853 8.61500   1
  14   8  -9 35.9036 8.77114   6
 -12  -8   9 14.6342 6.36599   6
 -12  -8   9 17.7593 7.85732   3
 -12  -8   9 15.0875 7.71575   2
  12  -8  -9 16.8039 8.02719   5
  12   8  -9 18.5132 8.06630   1
 -12   8   9 19.3734 8.60186   4
  12   8  -9 15.1306 7.18780   6
 -10  -8   9 67.6727 7.72821   6
 -10  -8   9 78.5740 11.3380   2
  10  -8  -9 79.7355 11.6586   5
  10  -8  -9 73.5529 7.72362   6
 -10  -8   9 70.9033 9.96923   3
 -10  -8   9 77.7522 7.95721   6
  10   8  -9 63.8038 10.9476   1
  10   8  -9 77.6879 10.5774   6
 -10   8   9 77.6929 11.6085   4
 -10   8   9 52.6590 9.49101   6
  -8  -8   9 42.9176 9.15152   2
   8  -8  -9 32.5876 8.90459   5
  -8  -8   9 47.4098 8.92663   3
   8  -8  -9 52.0431 10.1919   6
   8  -8  -9 24.1013 10.1872   6
  -8   8   9 37.9971 9.55397   4
  -8   8   9 35.7090 8.73865   6
   8   8  -9 43.1519 10.6361   1
   8   8  -9 41.5116 8.65232   6
  -6  -8   9 2.26876 6.86123   2
   6  -8  -9 3.84093 6.91118   5
   6   8  -9 24.6589 7.26738   6
   6   8  -9 9.66561 9.39936   1
  -6   8   9 -7.7251 6.36572   6
  -6   8   9 -2.0382 6.87474   4
   4  -8  -9 5.28636 6.36810   5
   4   8  -9 15.1951 7.06084   6
  -4   8   9 4.49639 7.39329   4
  -4   8   9 1.02482 7.36788   6
   4   8  -9 9.74772 8.13237   1
   2  -8  -9 17.4901 11.5846   6
  -2  -8   9 7.80357 7.53113   2
   2  -8  -9 25.2953 6.71063   5
   2   8  -9 6.66081 8.07111   1
  -2   8   9 17.5449 8.03845   6
  -2   8   9 7.35953 6.41389   4
 -22   0  10 110.989 11.2517   6
 -22   0  10 96.5980 13.5076   3
  22   0 -10 134.035 13.9455   5
  20   0 -10 23.6534 8.89546   5
 -20   0  10 30.0579 7.85060   6
 -20   0  10 43.7455 10.6112   3
  18   0 -10 97.0670 11.6619   1
 -18   0  10 98.2866 11.4895   6
  18   0 -10 99.9292 8.34138   6
 -18   0  10 89.2795 12.3835   3
  18   0 -10 104.404 7.37289   6
 -16   0  10 -0.8325 2.38998   2
  16   0 -10 7.81491 5.40869   6
 -16   0  10 10.8629 6.72920   6
  16   0 -10 6.84547 3.98501   6
  16   0 -10 0.70490 6.75200   1
  16   0 -10 1.58593 5.57039   6
 -16   0  10 -1.6281 7.53313   3
  14   0 -10 259.340 13.4697   6
  14   0 -10 248.398 17.0927   1
 -14   0  10 257.345 9.00797   2
 -14   0  10 276.519 14.8137   4
  14   0 -10 253.853 12.3907   6
 -14   0  10 228.176 15.9558   3
 -12   0  10 288.411 14.4068   4
  12   0 -10 290.126 14.7149   6
 -12   0  10 298.733 10.9465   2
 -12   0  10 279.801 14.8861   6
  12   0 -10 294.704 13.5653   6
 -12   0  10 293.166 17.6684   3
  12   0 -10 271.271 17.8432   1
  10   0 -10 349.088 15.7034   6
  10   0 -10 343.474 19.9165   1
 -10   0  10 355.751 12.8968   2
 -10   0  10 303.038 14.2147   6
 -10   0  10 340.366 18.0150   3
  10   0 -10 327.940 21.1783   6
 -10   0  10 333.876 15.8191   6
 -10   0  10 339.065 14.4276   4
  -8   0  10 269.240 12.6120   6
  -8   0  10 264.980 13.4503   6
  -8   0  10 257.546 12.2533   2
   8   0 -10 267.112 15.8370   6
   8   0 -10 268.408 18.5305   1
  -8   0  10 285.002 12.2354   4
   8   0 -10 261.545 11.7701   2
   6   0 -10 125.791 12.5475   6
  -6   0  10 126.673 8.77551   6
  -6   0  10 128.908 8.12325   4
  -6   0  10 108.303 9.24652   6
   6   0 -10 130.410 14.6158   1
   4   0 -10 7.38351 6.75596   6
   4   0 -10 19.0736 9.10612   1
  -4   0  10 7.12342 3.88028   6
  -4   0  10 3.95054 2.96691   4
  -4   0  10 6.55702 4.32998   6
   2   0 -10 54.2267 9.69026   6
   2   0 -10 61.2366 11.3199   1
   0   0 -10 2.21870 6.67743   6
   0   0 -10 -4.6399 8.32018   1
  -2   0 -10 23.8370 9.03667   1
  -2   0 -10 51.1299 14.6581   6
  -4   0 -10 11.5909 8.11022   6
  -4   0 -10 8.78349 8.56011   1
  21  -1 -10 16.5160 7.98334   5
 -21  -1  10 10.0649 3.56146   2
 -21  -1  10 9.62253 6.27288   6
 -21  -1  10 23.4595 15.2477   3
 -21   1  10 1.39509 8.33127   3
 -21   1  10 0.40598 7.26354   4
  21   1 -10 0.77576 7.67068   5
 -21   1  10 17.1452 6.92633   6
  19  -1 -10 233.206 17.0436   5
 -19  -1  10 218.732 16.3037   6
 -19  -1  10 215.498 8.26982   2
 -19  -1  10 235.274 18.0505   3
 -19   1  10 221.623 14.2357   6
 -19   1  10 246.346 16.1867   4
  19   1 -10 214.190 10.1358   6
  19   1 -10 219.747 15.2494   1
  19   1 -10 238.591 11.2504   6
 -19   1  10 247.082 17.4947   3
 -17  -1  10 121.922 14.2170   3
  17  -1 -10 111.781 13.0698   1
  17  -1 -10 95.1495 8.40314   6
 -17  -1  10 93.9239 6.55706   2
  17  -1 -10 120.441 7.44141   6
 -17   1  10 105.761 11.4984   6
  17   1 -10 91.5690 9.49545   6
  17   1 -10 104.435 12.0163   6
 -17   1  10 100.347 11.4423   4
  17   1 -10 92.6073 9.66030   6
 -17   1  10 104.644 13.1915   3
  17   1 -10 119.522 13.7907   1
 -15  -1  10 29.9575 8.89465   6
  15  -1 -10 25.3065 6.74468   6
  15  -1 -10 26.1874 6.49686   6
  15  -1 -10 15.0750 7.91640   1
 -15  -1  10 26.6718 8.33252   3
 -15  -1  10 30.8669 5.02613   2
  15  -1 -10 34.5310 5.86623   6
  15   1 -10 25.2614 8.67920   1
 -15   1  10 35.3791 8.52162   6
 -15   1  10 11.4344 7.25264   4
  15   1 -10 16.4069 6.54351   6
  15   1 -10 36.0780 6.00005   6
 -15   1  10 28.2962 8.96165   3
  13  -1 -10 1.59796 7.93468   1
  13  -1 -10 -1.4282 5.95312   6
  13  -1 -10 8.90200 6.13523   6
 -13  -1  10 -3.8485 5.64781   6
  13  -1 -10 -0.5359 4.31156   6
 -13  -1  10 -5.8167 5.73275   3
 -13   1  10 4.05620 7.27307   6
 -13   1  10 -8.9204 6.19658   3
  13   1 -10 3.43745 4.95655   6
 -13   1  10 0.02179 5.63672   4
  13   1 -10 3.67861 6.00406   6
  13   1 -10 -1.5856 7.11973   1
  11  -1 -10 102.928 9.40809   6
  11  -1 -10 118.523 11.2994   6
 -11  -1  10 96.6007 10.5768   6
  11  -1 -10 107.748 11.8719   6
  11  -1 -10 98.2838 12.2821   1
 -11  -1  10 102.765 9.52592   6
 -11  -1  10 105.175 8.39978   2
 -11  -1  10 113.652 13.0955   3
 -11   1  10 101.287 9.98773   6
  11   1 -10 117.399 10.1268   6
 -11   1  10 124.204 13.3782   3
 -11   1  10 105.111 10.9923   6
 -11   1  10 117.144 10.4119   4
  11   1 -10 117.144 11.7681   6
  11   1 -10 129.972 14.5322   1
  -9  -1  10 497.492 18.0966   6
  -9  -1  10 507.042 17.5064   6
   9  -1 -10 548.538 23.9026   1
  -9  -1  10 491.831 16.6168   4
  -9  -1  10 514.703 17.3468   2
   9  -1 -10 514.649 23.7906   6
   9  -1 -10 514.062 15.2409   2
   9   1 -10 521.936 23.3717   6
   9   1 -10 526.259 22.9448   1
  -9   1  10 481.539 18.6452   6
   9   1 -10 523.081 20.2961   6
  -9   1  10 509.180 17.7366   4
  -9   1  10 514.812 18.2624   6
   7  -1 -10 118.955 13.4010   1
  -7  -1  10 146.814 10.3748   2
  -7  -1  10 147.173 10.1531   6
   7  -1 -10 168.666 13.1318   6
  -7  -1  10 152.582 12.9529   4
   7  -1 -10 151.647 9.36295   2
  -7   1  10 156.373 9.74109   4
  -7   1  10 155.220 11.1427   6
  -7   1  10 155.093 10.3417   6
   7   1 -10 165.736 14.4676   1
   7   1 -10 172.483 13.1330   6
  -5  -1  10 8.51953 3.81140   6
   5  -1 -10 17.0244 7.33351   6
  -5  -1  10 3.95486 4.19282   6
   5  -1 -10 -8.7272 7.31535   1
  -5  -1  10 10.2925 3.32647   4
  -5  -1  10 8.19726 5.79321   2
  -5   1  10 7.62372 5.06193   6
   5   1 -10 15.7659 7.66869   1
   5   1 -10 11.9328 6.91477   6
  -5   1  10 2.68256 3.90767   4
  -5   1  10 8.53275 4.20154   6
   3  -1 -10 25.1179 7.72141   6
   3  -1 -10 33.7055 9.58664   1
  -3   1  10 23.1823 3.92724   4
   3   1 -10 13.8298 7.14988   6
  -3   1  10 28.3069 4.89621   6
   3   1 -10 20.5872 8.51719   1
  -3   1  10 25.3275 5.04769   6
   1  -1 -10 111.491 14.1195   1
   1  -1 -10 127.197 12.9393   6
   1   1 -10 104.833 13.7493   1
   1   1 -10 129.292 12.0862   6
  -1  -1 -10 80.9475 12.2429   1
  -1  -1 -10 86.6772 11.2440   6
  -1   1 -10 81.0616 12.9367   1
  -1   1 -10 71.8917 11.5335   6
  -3  -1 -10 37.4498 10.5730   1
  -3  -1 -10 52.5730 9.69248   6
  -3   1 -10 32.7404 10.9286   1
  -3   1 -10 44.8604 8.92651   6
 -20  -2  10 8.46302 6.02212   6
 -20  -2  10 -0.8867 9.45801   3
 -20  -2  10 -4.3315 3.96177   2
  20  -2 -10 -2.9717 8.17797   5
  20   2 -10 1.33926 6.15835   6
 -20   2  10 -2.4189 6.38710   3
 -20   2  10 3.01223 6.64424   4
  20   2 -10 6.65941 4.67957   6
 -20   2  10 25.4825 7.49702   6
 -18  -2  10 11.3156 7.10998   6
  18  -2 -10 5.96538 7.39483   5
 -18  -2  10 0.13202 7.35963   3
 -18  -2  10 6.18306 3.93638   2
 -18   2  10 -4.5631 5.02430   6
 -18   2  10 7.52221 8.21810   3
  18   2 -10 -1.2858 5.21864   6
  18   2 -10 -0.4920 6.62133   1
 -18   2  10 6.97255 7.43917   4
  18   2 -10 3.01480 5.17646   6
  16  -2 -10 5.68444 4.87372   6
 -16  -2  10 7.87664 6.32505   6
 -16  -2  10 -3.8917 7.18207   3
 -16  -2  10 11.2617 4.30170   2
  16  -2 -10 3.55358 7.45243   5
  16  -2 -10 2.52827 3.74391   6
  16   2 -10 7.63547 6.11069   6
 -16   2  10 -4.4352 6.80808   3
  16   2 -10 14.9779 4.81677   6
  16   2 -10 1.55127 6.79972   1
 -16   2  10 6.83692 6.56793   4
 -16   2  10 8.20119 6.73169   6
  14  -2 -10 1.38378 5.39323   6
 -14  -2  10 6.72233 4.64723   2
  14  -2 -10 10.5802 7.91030   1
 -14  -2  10 9.01535 6.21430   6
  14  -2 -10 15.3229 6.59202   6
 -14  -2  10 11.1325 5.65468   6
 -14  -2  10 -0.3319 6.92046   3
 -14   2  10 -1.0942 5.58630   4
  14   2 -10 18.9323 4.96412   6
  14   2 -10 6.27388 7.15708   1
 -14   2  10 -0.9358 5.59843   6
  14   2 -10 10.7776 6.56411   6
 -14   2  10 0.20845 7.16447   3
  12  -2 -10 9.85373 6.29532   6
 -12  -2  10 10.2819 7.57064   3
  12  -2 -10 5.26379 6.47370   6
 -12  -2  10 17.6024 5.25020   2
 -12  -2  10 15.3044 5.38887   6
  12  -2 -10 -3.3234 7.41572   1
  12  -2 -10 7.77146 5.25048   6
 -12  -2  10 11.7013 6.43335   6
  12   2 -10 18.2903 6.41463   6
 -12   2  10 8.79815 6.06976   4
 -12   2  10 5.94938 7.10851   3
  12   2 -10 9.85658 6.67317   6
  12   2 -10 6.23833 8.02231   1
 -12   2  10 11.2827 6.86728   6
 -10  -2  10 28.9009 6.44128   6
  10  -2 -10 41.9784 6.89252   6
  10  -2 -10 32.4090 7.43324   6
  10  -2 -10 29.7506 7.85561   6
  10  -2 -10 24.1638 3.96394   2
 -10  -2  10 31.1925 9.07839   3
  10  -2 -10 29.5942 9.91384   1
 -10  -2  10 37.7530 6.57889   6
 -10  -2  10 37.3897 6.79555   2
  10   2 -10 41.1660 7.30960   6
  10   2 -10 29.1833 8.83023   1
  10   2 -10 25.1644 8.96221   6
 -10   2  10 34.1862 6.59404   6
 -10   2  10 29.2851 7.93624   6
 -10   2  10 35.1530 7.18876   4
  -8  -2  10 7.87120 5.30351   2
  -8  -2  10 16.1898 4.81132   4
  -8  -2  10 2.20002 4.83350   6
   8  -2 -10 7.47822 3.85520   2
   8  -2 -10 0.03714 6.70331   6
   8  -2 -10 -3.1198 7.48376   1
   8  -2 -10 6.80936 6.93472   6
  -8   2  10 0.51641 5.17937   4
  -8   2  10 13.7720 5.52579   6
  -8   2  10 2.44819 6.26792   6
   8   2 -10 6.35330 6.00274   6
   8   2 -10 -1.0703 6.54839   1
   6  -2 -10 -7.2409 6.48075   1
   6  -2 -10 4.61728 7.47042   6
  -6  -2  10 1.10822 3.18612   4
   6  -2 -10 16.6992 4.81501   2
  -6  -2  10 -0.1085 3.35279   4
  -6  -2  10 8.03721 3.73663   6
  -6  -2  10 0.17554 4.76989   2
   6  -2 -10 0.05932 6.87564   6
  -6  -2  10 -3.9703 3.89006   6
  -6   2  10 6.85583 4.65014   4
   6   2 -10 5.86402 6.42232   6
  -6   2  10 -5.8382 4.10060   6
   6   2 -10 -5.8401 6.51343   1
  -6   2  10 2.22496 4.83859   6
   4  -2 -10 23.1348 9.03921   1
   4  -2 -10 41.3288 9.00372   6
  -4   2  10 29.2129 6.57735   6
  -4   2  10 27.6610 6.86290   4
   4   2 -10 45.8284 10.3170   1
  -4   2  10 43.3470 8.66048   6
   4   2 -10 33.6394 8.46482   6
   2  -2 -10 -5.9768 7.71566   1
  -2  -2  10 6.09246 6.44614   2
   2  -2 -10 9.32554 7.38901   6
  -2   2  10 10.9230 4.69810   6
  -2   2  10 14.7150 3.70264   4
   2   2 -10 24.0458 9.52439   1
   2   2 -10 7.72258 6.60127   6
  -2   2  10 20.0873 4.62277   6
   0  -2 -10 15.8661 7.53141   6
   0  -2 -10 4.30868 8.08556   1
   0  -2  10 0.70096 6.25299   2
   0   2 -10 -6.9680 5.73980   6
   0   2 -10 1.25456 7.69340   1
  -2  -2 -10 -1.8304 8.05147   1
  -2  -2 -10 8.01050 7.71525   6
  -2   2 -10 23.2146 7.80443   6
  -2   2 -10 -5.6442 7.43436   1
 -21  -3  10 29.4593 5.76890   2
 -21  -3  10 31.0697 10.3496   3
  21  -3 -10 23.2316 9.86364   5
 -21  -3  10 26.7611 7.43735   6
  21   3 -10 26.2251 11.0169   1
 -21   3  10 34.7690 9.77357   3
 -21   3  10 39.4739 9.93958   4
 -21   3  10 48.9476 8.69578   6
  21   3 -10 26.8029 5.17608   6
  21   3 -10 30.9186 4.92092   6
  21   3 -10 30.9134 5.38372   6
  19  -3 -10 89.2305 12.6565   5
 -19  -3  10 103.103 11.4009   6
 -19  -3  10 86.8027 8.53051   2
 -19  -3  10 105.653 13.9314   3
 -19   3  10 106.511 11.6073   6
 -19   3  10 93.3765 12.1071   4
 -19   3  10 108.504 13.7507   3
  19   3 -10 92.9787 9.41373   6
  19   3 -10 80.1683 7.57729   6
  19   3 -10 80.3101 10.3392   1
  17  -3 -10 108.235 13.6538   5
 -17  -3  10 117.614 14.0602   3
 -17  -3  10 106.863 9.15839   2
 -17  -3  10 112.328 11.6831   6
  17   3 -10 97.3689 10.7599   6
 -17   3  10 117.539 11.6904   6
 -17   3  10 111.925 12.9616   4
  17   3 -10 103.150 11.9089   1
 -17   3  10 118.201 14.1249   3
  17   3 -10 114.043 9.32011   6
 -15  -3  10 40.1516 8.32201   6
  15  -3 -10 41.6927 6.39641   6
 -15  -3  10 28.7888 5.89827   2
  15  -3 -10 43.4251 10.6928   5
  15  -3 -10 40.0806 5.45762   6
 -15  -3  10 28.6717 9.69045   3
 -15  -3  10 53.3836 7.68650   6
  15   3 -10 17.9810 7.72326   1
 -15   3  10 36.9442 8.60554   6
  15   3 -10 30.7977 7.95346   6
  15   3 -10 41.3985 7.02632   6
 -15   3  10 33.0857 7.94059   4
 -15   3  10 32.4139 8.64428   3
 -13  -3  10 37.9555 7.10499   6
 -13  -3  10 25.6321 6.90824   6
 -13  -3  10 27.6938 5.88642   2
 -13  -3  10 20.2228 8.05873   3
  13  -3 -10 29.0339 7.02498   6
  13  -3 -10 27.9107 8.83510   5
 -13   3  10 28.7715 7.88322   4
  13   3 -10 52.5061 8.73099   6
  13   3 -10 16.7069 8.40624   1
 -13   3  10 31.0333 8.16911   6
 -13   3  10 29.8240 8.22360   3
  13   3 -10 50.7367 7.92591   6
  11  -3 -10 94.2642 10.3935   6
 -11  -3  10 125.549 13.7079   6
 -11  -3  10 101.950 9.51223   2
 -11  -3  10 99.7838 9.86177   6
  11  -3 -10 84.3074 12.2738   1
  11  -3 -10 86.6656 9.87442   6
 -11  -3  10 90.0420 12.3034   3
  11   3 -10 108.713 10.8649   6
  11   3 -10 106.256 11.3258   6
  11   3 -10 84.0544 11.7770   1
 -11   3  10 89.1072 11.3873   6
 -11   3  10 109.131 16.9635   6
 -11   3  10 96.7107 10.8357   4
   9  -3 -10 112.096 11.9004   6
  -9  -3  10 119.622 10.2402   2
   9  -3 -10 130.813 12.1283   6
  -9  -3  10 125.511 13.5485   3
  -9  -3  10 145.428 9.49793   4
   9  -3 -10 134.075 14.0007   1
   9  -3 -10 115.587 10.2532   6
  -9  -3  10 119.103 9.70966   6
   9  -3 -10 131.427 7.24370   2
   9   3 -10 111.436 11.3588   6
  -9   3  10 119.923 10.9637   4
  -9   3  10 144.016 11.2631   6
   9   3 -10 120.419 13.0795   1
  -9   3  10 118.028 12.0064   6
   7  -3 -10 190.497 14.0304   6
  -7  -3  10 201.133 8.95124   6
   7  -3 -10 199.279 15.9569   1
  -7  -3  10 184.874 9.34773   4
   7  -3 -10 162.176 13.1086   6
  -7  -3  10 174.795 9.54308   6
  -7  -3  10 196.320 12.5059   2
   7  -3 -10 175.982 9.70272   2
  -7   3  10 185.333 11.8802   6
  -7   3  10 178.841 11.7393   4
  -7   3  10 185.300 12.8336   6
   7   3 -10 178.136 13.0684   6
   7   3 -10 184.763 16.0395   1
  -5  -3  10 3.80052 3.25819   4
   5  -3 -10 -1.2275 6.50828   6
   5  -3 -10 1.90765 6.92020   6
  -5  -3  10 2.45668 2.86575   4
   5  -3 -10 -7.8065 7.43846   1
  -5  -3  10 -0.0965 5.35845   2
  -5   3  10 -1.0631 5.42215   6
  -5   3  10 3.76966 4.71777   4
   5   3 -10 11.1432 8.23965   1
  -5   3  10 2.91505 4.53928   6
   5   3 -10 -3.9185 5.93215   6
   3  -3 -10 63.8239 13.5163   6
  -3  -3  10 69.2232 9.49588   2
   3  -3 -10 78.5570 14.7952   6
   3  -3 -10 55.7852 10.6732   1
   3   3 -10 82.2958 10.5881   6
  -3   3  10 63.7531 8.10519   6
  -3   3  10 61.1487 8.13669   6
  -3   3  10 62.1159 6.84143   4
   3   3 -10 67.0333 11.0941   1
   1  -3 -10 49.8073 11.3430   1
  -1  -3  10 24.7145 8.21537   2
   1  -3 -10 23.0073 7.93550   6
   1  -3 -10 42.1664 9.04071   6
   1   3 -10 44.3671 8.69631   6
   1   3 -10 47.0231 10.1028   1
  -1   3  10 28.5864 5.02085   4
  -1   3  10 32.1910 5.24089   6
   1  -3  10 97.6735 12.6012   2
  -1  -3 -10 75.4159 11.7786   1
  -1  -3 -10 95.7728 11.9255   6
  -1  -3 -10 80.1826 11.1722   6
  -1   3 -10 115.241 11.6547   6
  -1   3 -10 86.5901 13.5606   1
   1   3  10 90.8158 6.32631   4
  20  -4 -10 160.208 14.3109   5
 -20  -4  10 146.415 15.6130   3
 -20  -4  10 163.449 13.6852   6
 -20  -4  10 126.064 9.93677   2
  20   4 -10 140.808 10.3181   6
 -20   4  10 182.856 13.1636   6
 -20   4  10 155.614 16.0944   4
  20   4 -10 145.929 13.0450   1
 -20   4  10 151.907 15.5557   3
 -18  -4  10 94.1626 9.26082   2
 -18  -4  10 77.9418 11.4410   3
  18  -4 -10 121.945 14.8037   5
 -18  -4  10 113.365 11.9446   6
 -18   4  10 93.4087 12.2863   3
 -18   4  10 104.220 12.8016   4
  18   4 -10 122.931 13.3531   1
 -18   4  10 107.901 12.0067   6
  18   4 -10 79.3562 10.3868   6
  16  -4 -10 16.6011 7.96788   5
 -16  -4  10 5.67012 7.26899   3
 -16  -4  10 13.7266 7.03102   6
 -16  -4  10 3.63669 4.88794   2
 -16  -4  10 21.2192 6.14778   6
  16   4 -10 -2.5831 6.00364   6
  16   4 -10 19.3511 5.49969   6
 -16   4  10 2.86138 6.79519   4
 -16   4  10 13.2624 6.88400   6
 -16   4  10 -0.6916 6.66716   3
  16   4 -10 -7.3042 6.67996   1
 -14  -4  10 152.793 10.6325   6
  14  -4 -10 112.222 7.66482   6
 -14  -4  10 85.7552 9.17727   2
 -14  -4  10 96.7753 10.7718   6
 -14  -4  10 122.064 14.0568   3
  14  -4 -10 96.6743 8.87479   6
  14  -4 -10 106.190 14.0916   5
  14   4 -10 106.645 11.3107   6
  14   4 -10 110.107 13.1129   1
 -14   4  10 93.7433 11.6856   3
  14   4 -10 127.001 10.0529   6
 -14   4  10 117.880 12.7127   6
 -14   4  10 106.093 11.9043   4
  12  -4 -10 405.922 20.3374   5
  12  -4 -10 387.685 16.3705   6
 -12  -4  10 427.440 20.4667   3
 -12  -4  10 421.706 17.2026   6
 -12  -4  10 435.694 17.1612   2
  12   4 -10 434.577 21.2529   1
  12   4 -10 462.376 23.1242   6
  12   4 -10 403.746 18.2459   6
 -12   4  10 393.062 18.2245   4
  10  -4 -10 108.201 11.5158   6
  10  -4 -10 146.734 14.4516   6
 -10  -4  10 104.331 9.99232   2
 -10  -4  10 130.921 12.5174   3
  10  -4 -10 121.247 5.83146   2
  10  -4 -10 100.855 12.3695   5
 -10  -4  10 118.821 10.0700   6
 -10   4  10 127.983 12.4941   6
  10   4 -10 113.870 13.8002   1
 -10   4  10 156.827 15.0992   6
 -10   4  10 112.488 11.7197   4
   8  -4 -10 34.8789 6.61844   6
  -8  -4  10 21.2287 5.51288   6
  -8  -4  10 31.3209 11.9037   2
  -8  -4  10 28.6359 5.18052   6
  -8  -4  10 23.6655 5.34916   4
   8  -4 -10 26.8251 4.81451   2
   8  -4 -10 42.0219 10.1604   1
   8  -4 -10 31.9076 8.46544   6
  -8   4  10 25.7726 7.01177   4
  -8   4  10 30.0463 6.67206   6
  -8   4  10 39.5515 8.21039   6
   8   4 -10 21.9844 7.65567   6
   8   4 -10 24.1608 7.86819   1
   6  -4 -10 16.8996 4.92079   2
   6  -4 -10 12.4547 7.57287   6
  -6  -4  10 2.17601 5.95274   2
   6  -4 -10 11.8929 7.82092   1
   6  -4 -10 30.1057 7.05942   6
  -6  -4  10 10.3667 4.15118   4
   6   4 -10 18.6647 8.57936   1
   6   4 -10 13.7950 7.05557   6
  -6   4  10 9.96075 5.97976   4
  -6   4  10 15.6265 7.26869   6
  -6   4  10 24.5577 6.28774   6
  -4  -4  10 70.5774 9.67638   2
   4  -4 -10 46.3118 10.0586   1
  -4  -4  10 61.1083 4.13593   4
   4  -4 -10 63.9255 10.0956   6
   4   4 -10 92.6172 10.8761   6
  -4   4  10 77.7297 8.44642   6
  -4   4  10 61.6652 9.01296   6
  -4   4  10 60.9628 7.87942   4
   4   4 -10 51.7204 10.1576   1
   2  -4 -10 54.1280 10.3518   6
   2  -4 -10 63.6235 10.5151   6
   2  -4 -10 55.3606 11.4820   1
  -2  -4  10 71.1637 10.7689   2
   2   4 -10 65.3581 11.2341   1
  -2   4  10 69.9410 8.38806   6
  -2   4  10 67.9210 7.66281   4
  -2   4  10 83.9979 7.96154   6
   0  -4 -10 9.66360 8.58825   1
   0  -4 -10 3.20257 7.25865   6
   0  -4 -10 -0.4907 7.16093   6
   0  -4  10 1.42729 6.68690   2
   0   4  10 9.46384 3.85621   6
   0   4  10 4.03907 4.13780   4
   0   4 -10 10.5245 8.81971   1
   0   4  10 2.94498 4.10355   6
   0   4 -10 10.0290 6.41092   6
  -2  -4 -10 24.7925 10.0087   6
  -2  -4 -10 10.7904 9.37975   6
  -2  -4 -10 3.28109 8.02098   1
   2  -4  10 9.12442 8.01451   2
   2   4  10 17.2176 6.34744   4
  -2   4 -10 -0.2976 8.38436   1
 -19  -5  10 13.4849 6.93214   6
 -19  -5  10 19.3755 5.77960   2
 -19  -5  10 1.60621 7.09593   3
  19  -5 -10 25.8040 8.76078   5
 -19   5  10 16.7618 6.32276   6
  19   5 -10 1.86269 5.93969   6
  19   5 -10 3.90280 6.69112   1
 -19   5  10 -3.3623 6.55753   3
 -19   5  10 13.7349 8.20199   4
 -17  -5  10 29.9874 8.38095   6
 -17  -5  10 11.8417 6.09586   2
 -17  -5  10 16.2031 8.72264   3
 -17   5  10 10.5933 6.56496   6
  17   5 -10 -4.2856 6.57799   1
 -17   5  10 6.68607 8.01096   3
  17   5 -10 27.8179 12.0950   6
 -17   5  10 18.2731 8.44753   4
 -15  -5  10 12.2975 5.96894   6
  15  -5 -10 18.9511 8.32111   5
 -15  -5  10 -4.6836 6.59043   3
 -15  -5  10 -0.6346 6.08069   6
 -15  -5  10 -7.1675 5.43243   2
  15   5 -10 -6.5886 6.64442   1
  15   5 -10 -1.8247 6.37359   6
 -15   5  10 3.55914 6.57700   6
 -15   5  10 5.49788 7.40089   4
  15   5 -10 16.9365 5.70591   6
 -13  -5  10 35.7891 7.59634   6
  13  -5 -10 39.8345 6.68747   6
 -13  -5  10 47.0610 8.09557   2
 -13  -5  10 39.9669 8.79042   3
  13  -5 -10 56.3097 6.64947   6
  13  -5 -10 33.9790 9.25973   5
  13   5 -10 37.5557 8.44386   6
  13   5 -10 43.9639 10.3452   1
 -13   5  10 21.8657 8.15693   4
 -11  -5  10 66.1447 8.32484   6
  11  -5 -10 69.9753 8.91608   6
 -11  -5  10 66.0912 10.5270   3
 -11  -5  10 83.8942 9.90206   2
  11  -5 -10 78.3883 12.2089   5
  11   5 -10 98.3593 11.9613   6
  11   5 -10 62.5568 10.6012   1
 -11   5  10 57.5249 9.58088   4
 -11   5  10 75.7328 10.3596   6
  -9  -5  10 145.226 13.6012   3
  -9  -5  10 110.964 11.5928   2
   9  -5 -10 141.860 13.9076   5
   9  -5 -10 131.774 7.21505   2
   9  -5 -10 134.469 12.5784   6
  -9  -5  10 147.091 9.78318   6
  -9  -5  10 154.635 8.45936   6
   9   5 -10 129.347 13.8698   1
  -9   5  10 137.344 13.2374   6
  -9   5  10 140.189 12.8002   4
   9   5 -10 159.864 12.9170   6
   7  -5 -10 163.373 14.0199   6
   7  -5 -10 181.559 9.74872   2
  -7  -5  10 161.916 10.4349   4
   7  -5 -10 203.780 11.9342   6
  -7  -5  10 180.830 13.2497   2
   7  -5 -10 156.882 13.8033   5
   7   5 -10 181.754 13.9496   6
  -7   5  10 175.966 14.2359   6
  -7   5  10 180.908 13.1482   4
  -7   5  10 192.144 12.2185   6
   7   5 -10 179.248 16.4162   1
   5  -5 -10 26.1654 8.62475   6
   5  -5 -10 14.7210 8.86705   5
   5  -5 -10 43.9388 7.78563   6
  -5  -5  10 5.17852 6.07748   2
  -5  -5  10 9.84387 4.45173   4
   5   5 -10 16.4235 8.52519   1
  -5   5  10 16.5277 7.23119   6
   5   5 -10 23.3677 8.00960   6
  -5   5  10 11.7184 6.35899   4
   3  -5 -10 35.5830 8.91959   5
  -3  -5  10 33.3637 8.44867   2
   3  -5 -10 35.4207 9.28476   6
  -3   5  10 44.9814 8.11321   6
   3   5 -10 40.9323 10.7282   1
  -3   5  10 38.4182 7.01563   4
   3   5 -10 53.8896 8.97827   6
  -3   5  10 48.9329 7.21410   6
   1  -5 -10 93.9769 12.8419   6
   1  -5 -10 66.7471 10.6099   5
  -1  -5  10 84.7484 11.7371   2
  -1   5  10 120.764 8.58040   6
   1   5 -10 105.882 11.2316   6
  -1   5  10 84.1146 9.13154   4
 -16  -6  10 3.30309 5.56411   2
  16  -6 -10 8.58044 7.97830   5
 -16  -6  10 9.29483 7.16388   3
 -16   6  10 24.5757 8.68997   4
  16   6 -10 6.63985 7.36887   1
 -16   6  10 18.5326 7.22386   6
 -14  -6  10 39.6922 8.06347   2
 -14  -6  10 23.2793 9.11482   3
  14  -6 -10 22.6194 8.74644   5
 -14  -6  10 44.9399 9.83813   6
  14   6 -10 28.4665 9.37827   1
  14   6 -10 38.7704 8.75320   6
 -14   6  10 40.4326 9.61990   4
  12  -6 -10 17.8113 5.91015   6
 -12  -6  10 14.6379 6.70062   2
 -12  -6  10 20.2788 6.35054   6
  12  -6 -10 26.5423 4.74892   6
 -12  -6  10 16.4327 7.82576   3
  12  -6 -10 19.2445 8.73554   5
  12   6 -10 12.8353 7.95981   1
 -12   6  10 6.90343 6.75797   4
  12   6 -10 23.7409 7.15792   6
 -12   6  10 13.7133 7.24764   6
 -10  -6  10 -2.8625 6.66292   3
  10  -6 -10 13.6625 8.25358   5
 -10  -6  10 6.80575 4.12202   6
  10  -6 -10 4.82196 6.14644   6
 -10  -6  10 2.57405 4.72289   6
 -10  -6  10 7.62025 6.01860   2
 -10   6  10 -11.289 5.37583   4
  10   6 -10 3.75334 6.55165   6
 -10   6  10 5.11839 6.66870   6
  10   6 -10 5.50084 7.95276   1
   8  -6 -10 17.2539 7.50123   6
   8  -6 -10 13.6435 5.01691   2
   8  -6 -10 31.3336 9.30416   5
  -8  -6  10 19.7320 7.12203   2
   8   6 -10 8.30167 7.77239   1
  -8   6  10 28.3173 8.36180   6
  -8   6  10 22.4755 7.86540   4
   8   6 -10 27.6728 8.11947   6
   6  -6 -10 108.430 12.8379   6
  -6  -6  10 115.243 12.5684   2
   6  -6 -10 118.225 12.2786   5
  -6   6  10 110.764 12.0929   6
   6   6 -10 106.942 11.8365   6
   6   6 -10 82.9546 12.1986   1
  -6   6  10 119.846 12.1184   4
   4  -6 -10 51.5945 10.1403   6
   4  -6 -10 59.6799 9.82607   5
  -4  -6  10 30.8700 8.61209   2
  -4   6  10 54.0115 9.74163   6
   4   6 -10 72.0047 9.85750   6
   2  -6 -10 19.5084 7.19808   5
   2  -6 -10 18.2042 8.42038   6
  -2  -6  10 3.58866 8.29616   2
  -2   6  10 18.9469 7.07417   6
   2   6 -10 1.28893 8.59179   1
  -2   6  10 19.8989 6.37594   4
  13  -7 -10 9.36311 10.0343   5
 -13  -7  10 3.52413 7.04306   3
 -13  -7  10 4.78301 5.40089   6
 -13  -7  10 12.9204 6.84106   2
  13   7 -10 4.05269 6.50961   6
 -13   7  10 1.87605 7.11026   4
 -13   7  10 19.8513 7.45417   6
  13   7 -10 0.78132 7.08708   1
 -11  -7  10 14.7127 4.53998   6
 -11  -7  10 23.3410 7.39012   2
 -11  -7  10 4.61715 6.96894   3
  11  -7 -10 5.94594 7.28608   5
  11  -7 -10 18.3088 4.46358   6
  11   7 -10 1.58810 7.94776   1
 -11   7  10 22.8087 8.01333   4
 -11   7  10 -5.3512 6.37685   6
  11   7 -10 24.8687 7.93380   6
   9  -7 -10 62.7346 9.49594   6
   9  -7 -10 53.8237 10.8677   5
  -9  -7  10 69.4729 10.2839   2
   9   7 -10 42.0466 10.6649   1
  -9   7  10 57.9632 9.42427   6
  -9   7  10 47.2879 9.36620   4
   9   7 -10 62.5202 10.0964   6
   7  -7 -10 48.2247 9.38826   6
  -7  -7  10 55.3654 9.62729   2
   7  -7 -10 42.0975 9.36661   5
  -7   7  10 44.5383 9.11141   4
   7   7 -10 48.6288 8.72503   6
  -7   7  10 78.7025 11.3513   6
   5  -7 -10 3.53106 8.77278   6
   5  -7 -10 3.60460 7.29340   5
  -5  -7  10 2.81136 7.24422   2
   5   7 -10 -10.149 6.74555   1
  -5   7  10 1.18107 8.23949   6
   5   7 -10 4.15125 6.50238   6
  -5   7  10 -1.5720 6.63377   4
 -20   0  11 7.34798 8.04342   3
 -20   0  11 1.54974 6.52621   4
 -20   0  11 -4.7338 5.16093   6
  20   0 -11 8.98232 7.08477   1
 -18   0  11 9.76116 6.86574   6
 -18   0  11 -2.4899 6.03808   4
 -18   0  11 -1.7138 8.07138   3
  18   0 -11 17.8077 4.78925   6
  18   0 -11 -5.5653 4.81058   6
  18   0 -11 11.1265 7.86747   1
 -16   0  11 -2.7235 6.55674   3
  16   0 -11 0.05836 7.52469   1
  16   0 -11 2.57325 5.78648   6
 -16   0  11 2.62295 5.92117   4
  16   0 -11 1.78403 6.09932   6
  16   0 -11 2.51763 5.93547   6
 -16   0  11 6.85358 6.61205   6
 -14   0  11 2.29128 6.42633   4
 -14   0  11 -3.6563 7.56493   3
 -14   0  11 3.03155 6.18689   6
  14   0 -11 -6.7245 6.92204   1
  14   0 -11 -11.238 5.44372   6
  14   0 -11 2.08651 4.50775   6
  12   0 -11 6.09749 4.85566   6
 -12   0  11 1.29994 7.95266   3
 -12   0  11 7.18326 6.54581   6
 -12   0  11 14.4898 5.27662   6
 -12   0  11 -1.3579 5.08037   4
  12   0 -11 3.28576 8.12559   1
  12   0 -11 -0.9042 6.36439   6
  10   0 -11 1.35568 6.24204   6
  10   0 -11 13.8323 5.90742   6
 -10   0  11 -2.2086 4.62918   4
 -10   0  11 -1.9604 6.02734   6
  10   0 -11 -1.5585 7.93298   1
 -10   0  11 1.44745 4.39545   6
  -8   0  11 -3.7777 3.67576   4
   8   0 -11 -3.4418 6.32843   6
  -8   0  11 4.84221 5.62468   6
   8   0 -11 12.0466 9.26897   1
  -8   0  11 -4.4813 5.06473   6
  -6   0  11 -0.2185 4.55114   6
   6   0 -11 1.78531 8.92901   1
   6   0 -11 0.20519 10.1624   6
  -6   0  11 -5.7359 3.22920   4
  -6   0  11 2.21030 4.12536   6
   4   0 -11 4.63041 6.94149   6
   4   0 -11 -4.8519 7.12094   1
   2   0 -11 -1.6721 7.94227   1
   2   0 -11 1.17667 6.81669   6
   0   0 -11 -10.956 14.3435   1
   0   0 -11 7.13944 7.44701   6
  19  -1 -11 12.3763 3.46010   6
 -19  -1  11 16.6991 6.57099   6
 -19  -1  11 15.3467 5.24074   2
  19  -1 -11 11.7321 4.10458   6
 -19  -1  11 22.6743 10.8070   3
 -19   1  11 20.5702 8.17261   6
  19   1 -11 6.88275 4.26283   6
  19   1 -11 19.6786 8.29360   1
 -19   1  11 5.68275 6.78759   4
 -17  -1  11 -6.9972 7.30086   3
 -17  -1  11 7.51428 6.17678   6
  17  -1 -11 2.18255 5.57983   6
 -17  -1  11 6.34542 3.54148   2
  17  -1 -11 8.72146 3.92032   6
  17  -1 -11 6.53797 7.43289   1
  17   1 -11 2.06454 9.09229   1
  17   1 -11 0.34905 5.65525   6
 -17   1  11 8.75635 6.55746   6
  17   1 -11 9.57548 6.06444   6
 -17   1  11 6.18867 8.06674   3
 -17   1  11 -5.9075 5.70462   4
  15  -1 -11 11.8712 8.89890   1
 -15  -1  11 16.0345 6.98829   6
 -15  -1  11 18.8033 5.91025   6
  15  -1 -11 6.34606 4.66397   6
  15  -1 -11 7.00006 6.19042   6
  15  -1 -11 8.49515 6.04109   6
 -15  -1  11 9.81714 8.67395   3
 -15   1  11 14.9213 6.62848   6
 -15   1  11 0.56413 6.66664   3
  15   1 -11 20.8317 6.17426   6
  15   1 -11 8.95302 6.48374   6
  15   1 -11 11.2786 8.46756   1
 -15   1  11 14.5067 6.84787   4
 -13  -1  11 -9.2106 6.81742   3
  13  -1 -11 13.5977 4.65374   6
  13  -1 -11 0.19452 6.11261   6
 -13  -1  11 9.79267 4.61026   2
  13  -1 -11 -3.6400 6.13790   6
 -13  -1  11 6.80980 5.56203   4
 -13  -1  11 0.89538 4.50608   6
  13  -1 -11 -19.749 7.12883   1
 -13  -1  11 -5.7057 6.00740   6
 -13   1  11 -2.7940 7.27470   4
  13   1 -11 13.0032 4.95196   6
  13   1 -11 2.14805 7.93055   1
  13   1 -11 4.21783 6.81749   6
 -13   1  11 13.2746 6.19286   6
 -13   1  11 -2.0912 6.50102   3
 -13   1  11 8.73795 6.19455   6
  11  -1 -11 6.45348 6.65411   6
 -11  -1  11 7.14726 6.35524   6
 -11  -1  11 12.6675 5.66073   6
  11  -1 -11 -1.4559 6.45520   6
 -11  -1  11 9.86167 4.87448   2
 -11  -1  11 -2.2517 4.65606   4
  11  -1 -11 -4.8661 7.71572   1
 -11   1  11 3.10036 6.37942   6
 -11   1  11 -2.4831 5.03601   4
  11   1 -11 -7.3452 7.16368   1
  11   1 -11 24.0534 6.47964   6
 -11   1  11 12.8294 5.18422   6
  11   1 -11 -1.3892 6.19023   6
  -9  -1  11 7.84535 4.44854   6
  -9  -1  11 2.92725 4.46248   2
   9  -1 -11 1.44769 4.29237   2
  -9  -1  11 4.20914 5.76169   6
   9  -1 -11 -2.6684 6.40262   6
  -9  -1  11 -2.4276 4.15788   4
   9  -1 -11 0.22374 8.32138   1
   9  -1 -11 -2.5667 6.32642   6
   9   1 -11 -2.7448 8.22275   1
  -9   1  11 -6.1019 5.60444   6
   9   1 -11 15.8295 7.73326   6
  -9   1  11 8.47395 4.93649   4
  -9   1  11 -0.6217 5.53053   6
  -7  -1  11 -0.9947 4.21385   6
   7  -1 -11 -9.0273 6.58996   1
  -7  -1  11 10.9061 4.22193   6
   7  -1 -11 -8.8598 6.67730   6
  -7  -1  11 1.44366 5.18171   2
  -7  -1  11 2.36427 4.05368   4
   7   1 -11 9.78971 10.9867   6
   7   1 -11 -2.9779 8.22340   1
  -7   1  11 -0.2778 4.89134   6
  -7   1  11 5.41865 4.45063   4
  -5  -1  11 5.08969 2.93780   6
  -5  -1  11 -1.0989 5.14924   2
  -5  -1  11 3.81800 3.26028   6
  -5  -1  11 -2.2433 2.49386   4
   5  -1 -11 -1.7104 8.77105   6
   5  -1 -11 15.0777 8.68794   1
  -5   1  11 -3.4971 3.53220   4
  -5   1  11 -0.1371 4.62041   6
   5   1 -11 0.59775 6.58554   6
  -5   1  11 4.09104 4.08051   6
   5   1 -11 -2.6953 8.81985   1
   3  -1 -11 32.1022 10.9532   1
   3  -1 -11 27.6732 8.60282   6
   3   1 -11 17.7190 8.92126   1
   3   1 -11 21.1239 7.76045   6
   1  -1 -11 27.6466 8.53014   6
   1  -1 -11 33.8496 16.4250   1
   1   1 -11 5.92891 7.05916   6
 -18  -2  11 12.0364 4.46499   2
  18  -2 -11 16.5796 3.87348   6
 -18  -2  11 4.69674 6.19005   6
  18  -2 -11 8.71284 4.07562   6
 -18   2  11 10.2874 7.06238   4
 -18   2  11 17.0572 7.34658   6
  18   2 -11 14.4484 8.06334   1
 -18   2  11 6.42958 7.15492   3
 -16  -2  11 164.358 9.73025   2
  16  -2 -11 191.386 9.37150   6
  16  -2 -11 187.427 16.9103   5
 -16  -2  11 170.198 13.5000   6
  16  -2 -11 176.457 16.2732   1
  16  -2 -11 157.292 11.1138   6
 -16  -2  11 163.534 14.8098   3
 -16   2  11 169.925 14.1995   4
  16   2 -11 160.856 15.3411   1
 -16   2  11 169.768 14.8244   3
 -16   2  11 157.569 13.6193   6
  16   2 -11 140.220 12.0646   6
 -14  -2  11 341.228 20.0235   3
 -14  -2  11 367.549 14.1277   2
  14  -2 -11 337.273 15.8539   6
 -14  -2  11 331.633 16.7760   6
  14  -2 -11 339.788 21.2783   1
  14  -2 -11 362.244 14.3824   6
 -14  -2  11 352.048 15.3000   6
 -14   2  11 362.712 17.9094   6
  14   2 -11 365.160 15.4953   6
 -14   2  11 353.855 17.2427   4
  14   2 -11 348.244 17.2828   6
  14   2 -11 343.669 19.7956   1
 -14   2  11 342.347 20.1704   3
  12  -2 -11 326.140 16.2886   6
 -12  -2  11 359.565 15.0394   6
  12  -2 -11 338.228 16.6379   6
 -12  -2  11 338.418 16.1991   6
 -12  -2  11 351.501 19.5530   3
  12  -2 -11 375.255 22.0774   1
  12  -2 -11 373.590 15.0427   6
 -12  -2  11 331.530 14.1692   2
  12   2 -11 323.881 17.1493   6
 -12   2  11 351.774 16.2689   6
 -12   2  11 327.760 18.7236   4
  12   2 -11 354.085 21.1198   1
 -12   2  11 354.502 17.4757   6
  12   2 -11 346.100 15.8156   6
 -10  -2  11 75.7471 9.39152   6
 -10  -2  11 70.3230 8.01455   4
  10  -2 -11 61.4607 6.42665   2
 -10  -2  11 61.3000 8.07108   2
 -10  -2  11 96.1598 8.74339   6
  10  -2 -11 70.5569 10.1198   6
  10  -2 -11 81.4877 13.3662   1
  10  -2 -11 70.6735 9.79249   6
  10   2 -11 68.6602 10.0723   6
  10   2 -11 62.9729 11.0371   1
 -10   2  11 81.4390 9.05202   4
 -10   2  11 77.9352 10.2623   6
 -10   2  11 82.9535 9.37819   6
  -8  -2  11 23.8136 4.81333   4
  -8  -2  11 20.9843 4.88085   6
   8  -2 -11 5.55888 7.27060   6
   8  -2 -11 24.6696 7.79181   6
  -8  -2  11 11.2793 5.43978   6
  -8  -2  11 21.4821 6.54416   2
   8  -2 -11 25.8295 5.11032   2
   8  -2 -11 17.4900 9.31092   1
  -8   2  11 17.5131 6.77389   6
  -8   2  11 24.3932 5.93666   4
   8   2 -11 9.36142 9.12235   1
   6  -2 -11 166.162 17.4621   1
  -6  -2  11 207.164 13.3321   2
  -6  -2  11 190.217 7.68542   6
  -6  -2  11 178.858 8.01207   4
   6  -2 -11 180.790 14.3566   6
  -6  -2  11 199.298 7.80640   4
   6  -2 -11 156.615 13.8026   6
  -6  -2  11 181.850 7.92843   6
   6   2 -11 156.264 17.1100   1
  -6   2  11 157.068 11.5338   6
  -6   2  11 188.135 10.3144   4
   6   2 -11 191.009 14.0900   6
   4  -2 -11 238.535 15.7887   6
   4  -2 -11 239.242 16.5990   6
  -4  -2  11 223.129 14.2171   2
   4  -2 -11 187.734 16.9847   1
  -4   2  11 228.670 11.4647   6
   4   2 -11 227.577 14.5491   6
   4   2 -11 238.746 18.7602   1
  -4   2  11 238.981 10.3695   6
  -4   2  11 228.244 11.4772   4
   2  -2 -11 122.088 19.2664   6
  -2  -2  11 82.5423 11.2168   2
   2  -2 -11 123.506 18.4585   6
   2  -2 -11 104.308 16.6995   1
  -2   2  11 83.7682 5.81422   4
   2   2 -11 112.236 12.1212   6
 -19  -3  11 3.23062 4.34342   2
 -19  -3  11 2.04050 8.57163   3
 -19  -3  11 8.06382 6.37228   6
  19  -3 -11 -10.519 6.72574   5
  19   3 -11 -4.1940 5.31946   6
 -19   3  11 -8.1908 6.73733   4
 -19   3  11 3.07329 7.10127   6
  17  -3 -11 8.93213 3.59493   6
 -17  -3  11 -1.2493 3.95082   2
 -17  -3  11 -1.3024 5.78453   6
  17  -3 -11 2.04377 4.10220   6
 -17   3  11 12.3267 7.11447   6
  17   3 -11 -3.2316 6.87339   1
 -17   3  11 -2.9975 6.22043   4
 -17   3  11 19.7138 8.79941   3
 -15  -3  11 17.4171 8.80935   3
 -15  -3  11 12.9014 4.75136   2
  15  -3 -11 9.85565 8.83645   5
  15  -3 -11 6.65695 5.95009   6
  15  -3 -11 14.2731 4.60999   6
 -15  -3  11 3.26894 6.40922   6
  15   3 -11 0.59341 6.17007   6
 -15   3  11 12.6447 7.58430   6
  15   3 -11 -9.2112 6.69501   1
 -15   3  11 -4.2953 6.32654   3
 -15   3  11 6.43617 8.84694   4
 -13  -3  11 49.2050 7.19775   2
  13  -3 -11 27.8965 9.74377   1
 -13  -3  11 51.8241 11.2442   3
 -13  -3  11 30.3963 7.58927   6
  13  -3 -11 47.8555 6.71747   6
  13  -3 -11 49.2206 8.78949   6
 -13  -3  11 47.4924 7.02392   6
  13  -3 -11 37.3088 9.95480   5
  13   3 -11 44.7293 8.79607   6
 -13   3  11 51.5269 8.44893   4
  13   3 -11 61.3423 8.32817   6
 -13   3  11 49.2763 9.42403   6
  13   3 -11 30.3248 9.28822   1
 -11  -3  11 4.34282 5.10150   2
 -11  -3  11 12.6537 4.98370   6
  11  -3 -11 22.2216 5.60602   6
 -11  -3  11 -1.8930 6.81563   3
  11  -3 -11 -2.6878 6.62404   6
  11  -3 -11 -2.4126 8.11461   1
 -11  -3  11 -2.8815 5.28485   6
  11   3 -11 -5.0746 7.73126   1
 -11   3  11 6.08614 6.74579   6
  11   3 -11 4.63515 6.25328   6
 -11   3  11 6.97592 6.18930   6
   9  -3 -11 45.9333 11.1717   1
  -9  -3  11 36.3331 6.24560   4
  -9  -3  11 37.8148 6.85725   6
   9  -3 -11 56.3451 8.16128   6
   9  -3 -11 32.7404 8.45440   6
   9  -3 -11 34.5492 8.41870   6
   9  -3 -11 38.1158 6.49844   2
  -9  -3  11 40.9543 5.70145   6
   9   3 -11 33.4859 9.52429   1
  -9   3  11 57.0427 8.10845   4
  -9   3  11 44.3315 7.47085   6
  -9   3  11 36.9118 8.24757   6
   9   3 -11 35.6458 8.31411   6
  -7  -3  11 -8.2016 3.82135   4
  -7  -3  11 3.54617 3.74209   6
  -7  -3  11 -3.4152 3.46294   4
   7  -3 -11 -5.2142 6.28007   6
   7  -3 -11 8.46241 7.49276   6
  -7  -3  11 0.24824 5.87959   2
   7  -3 -11 -5.1962 8.16318   1
  -7  -3  11 6.38077 3.90399   6
  -7   3  11 -2.5803 6.43127   6
  -7   3  11 7.41384 4.77210   4
   7   3 -11 -1.1090 7.97085   1
   7   3 -11 3.87401 6.61643   6
  -7   3  11 8.94073 6.68882   6
   5  -3 -11 -8.8256 6.24960   6
  -5  -3  11 5.69818 5.59174   2
   5  -3 -11 -6.3859 6.72728   6
   5  -3 -11 3.20556 8.98536   1
  -5   3  11 -0.4985 4.35881   6
  -5   3  11 6.26888 5.96869   6
   5   3 -11 1.40610 6.06357   6
   5   3 -11 -6.3439 7.29658   1
  -5   3  11 -0.5736 4.57311   4
   3  -3 -11 10.4276 7.25053   6
  -3  -3  11 3.46677 6.46702   2
   3  -3 -11 -0.1850 7.29026   6
   3  -3 -11 13.4014 9.79206   1
  -3   3  11 5.60813 5.01233   4
  -3   3  11 4.67074 5.27260   6
  -3   3  11 5.81165 4.19233   6
   3   3 -11 13.8279 6.92401   6
   1  -3 -11 49.2145 11.5186   1
  -1  -3  11 34.7129 8.60230   2
   1  -3 -11 41.3171 9.56816   6
   1  -3 -11 41.3166 9.17774   6
   1   3 -11 36.2137 8.38455   6
   1   3 -11 40.0664 11.1490   1
  16  -4 -11 -4.7578 6.81347   5
  16  -4 -11 9.74125 4.33376   6
 -16  -4  11 5.46332 6.25145   6
  16  -4 -11 3.22577 4.11374   6
 -16  -4  11 6.14417 4.55173   2
 -16  -4  11 24.6184 15.4038   3
 -16   4  11 11.0093 7.29332   4
  16   4 -11 5.25408 7.81659   1
 -16   4  11 11.9812 7.03580   6
 -16   4  11 8.24925 8.05200   3
  14  -4 -11 62.5328 8.07307   6
  14  -4 -11 62.1132 11.0715   5
 -14  -4  11 52.2753 7.44085   2
 -14  -4  11 60.7631 12.0055   3
 -14  -4  11 60.9957 9.41736   6
  14  -4 -11 72.7828 6.73251   6
  14   4 -11 49.4666 9.41728   6
  14   4 -11 48.6306 10.4100   1
 -14   4  11 41.8042 9.81152   4
 -14   4  11 59.0814 10.0203   6
 -12  -4  11 5.14181 7.45480   3
  12  -4 -11 13.4202 9.20730   5
 -12  -4  11 14.3391 6.77857   2
 -12  -4  11 5.32212 5.79388   6
 -12  -4  11 7.99184 5.64434   6
  12  -4 -11 7.74580 6.85164   6
  12  -4 -11 13.1171 6.65633   6
  12   4 -11 12.8817 7.39159   6
  12   4 -11 6.78037 7.98105   1
 -12   4  11 4.42653 6.57376   4
 -12   4  11 7.15328 7.65715   6
  10  -4 -11 4.56372 7.01004   6
 -10  -4  11 -1.0833 4.93062   6
 -10  -4  11 9.73251 3.95341   6
  10  -4 -11 0.20537 7.42547   5
 -10  -4  11 3.40588 5.26474   2
  10   4 -11 -6.0106 5.90161   6
 -10   4  11 -3.7575 5.57833   6
 -10   4  11 6.60255 5.99365   4
  10   4 -11 8.50451 8.07296   1
 -10   4  11 -9.1179 6.55378   6
  -8  -4  11 47.7761 8.33001   2
   8  -4 -11 29.3387 8.50809   2
   8  -4 -11 36.4699 9.14219   6
  -8  -4  11 50.6351 5.99191   6
   8  -4 -11 34.4487 10.0609   1
  -8  -4  11 43.7563 5.36112   6
  -8   4  11 37.4840 8.20358   6
  -8   4  11 38.4948 7.26510   4
   8   4 -11 36.8206 10.6128   1
  -6  -4  11 4.08853 3.37715   4
  -6  -4  11 1.53600 5.18921   2
   6  -4 -11 14.2003 9.44104   1
   6  -4 -11 -3.2175 7.30867   6
   6   4 -11 -0.9123 6.21929   6
   6   4 -11 8.89973 9.85939   1
  -6   4  11 -0.0843 4.87179   4
  -6   4  11 -0.8502 6.61065   6
   4  -4 -11 6.45595 8.19919   6
  -4  -4  11 6.64019 6.72814   2
   4   4 -11 27.2619 8.03420   6
  -4   4  11 7.44607 5.20006   4
  -4   4  11 19.1853 7.09307   6
   4   4 -11 23.8847 9.38174   1
 -15  -5  11 70.8934 10.0254   6
  15  -5 -11 82.4300 7.34509   6
 -15  -5  11 78.5816 9.36910   2
  15  -5 -11 66.5835 11.7265   5
 -15  -5  11 72.7376 16.1228   3
  15  -5 -11 87.6310 7.54522   6
  15   5 -11 84.5246 11.7836   1
 -15   5  11 80.6758 11.1504   6
  15   5 -11 87.8906 17.8648   6
 -15   5  11 79.8251 11.9234   4
 -13  -5  11 6.67279 6.63326   6
  13  -5 -11 11.4085 6.69604   6
 -13  -5  11 2.41192 7.36079   3
 -13  -5  11 7.17473 5.56239   2
  13   5 -11 5.75683 7.97450   1
 -13   5  11 6.43007 7.86584   6
 -13   5  11 6.71906 7.23859   4
  13   5 -11 13.8525 7.50942   6
 -11  -5  11 10.9034 6.26346   2
 -11  -5  11 13.9008 8.41139   3
 -11  -5  11 13.7444 4.61088   6
  11  -5 -11 17.2653 9.51954   5
 -11   5  11 16.6148 8.11178   6
 -11   5  11 0.02121 6.74239   4
  11   5 -11 10.2433 8.20358   1
  11   5 -11 6.49330 6.72412   6
  -9  -5  11 5.68399 4.27403   6
   9  -5 -11 -7.8398 7.51791   5
   9  -5 -11 -3.1031 7.46682   6
  -9  -5  11 11.2940 4.39735   6
  -9  -5  11 -5.1628 5.18224   2
   9   5 -11 3.03340 6.43827   6
  -9   5  11 -7.3204 5.15581   4
  -9   5  11 -0.2052 6.19090   6
   9   5 -11 7.13633 9.00996   1
  -7  -5  11 73.7363 10.6877   2
   7  -5 -11 82.6815 11.9402   6
   7  -5 -11 70.2763 12.2925   5
   7   5 -11 61.7471 18.2767   1
  -7   5  11 75.8998 11.1982   4
   7   5 -11 75.2168 10.6223   6
   5  -5 -11 1.05983 8.06056   5
  -5  -5  11 14.1281 6.88098   2
   5  -5 -11 -7.2183 7.33403   6
  -5   5  11 -4.5622 6.25474   6
   5   5 -11 14.5495 6.73995   6
  -5   5  11 2.89135 5.77740   4
   5   5 -11 1.40784 8.29502   1
 -10  -6  11 26.1787 7.66949   2
  10  -6 -11 16.5561 6.97657   6
 -10  -6  11 27.7193 4.79501   6
 -10  -6  11 19.3561 7.67831   6
 -10   6  11 28.1673 8.74479   6
  10   6 -11 18.8278 9.15250   1
  10   6 -11 27.0951 8.39287   6
 -10   6  11 14.3723 7.57799   4
 -16   0  12 6.74133 6.89491   6
 -16   0  12 7.97892 6.89880   4
  16   0 -12 15.0322 7.32297   6
  16   0 -12 8.58323 6.56813   6
 -16   0  12 0.55205 7.18542   3
  16   0 -12 8.01699 7.75847   1
 -14   0  12 2.27191 6.47367   6
 -14   0  12 6.29075 5.77685   4
  14   0 -12 -4.5675 10.4891   6
 -14   0  12 -11.792 11.7088   3
  14   0 -12 8.38343 10.8537   6
  14   0 -12 -5.0513 7.79161   1
  12   0 -12 8.51154 6.99829   6
  12   0 -12 7.25484 8.86835   1
 -12   0  12 7.28215 8.01039   6
 -12   0  12 4.12215 5.11353   4
  10   0 -12 29.7295 17.3961   1
  10   0 -12 24.6918 8.01366   6
 -10   0  12 24.1281 5.78882   4
   8   0 -12 122.395 13.5078   6
  -8   0  12 124.445 8.87157   4
   8   0 -12 123.459 24.9513   1
   6   0 -12 79.2062 11.3025   6
  -6   0  12 74.0075 7.30693   6
   6   0 -12 67.5017 13.4774   1
  -6   0  12 64.8525 6.32910   4
  -6   0  12 70.7699 8.41762   6
  15  -1 -12 44.3627 8.60315   6
  15  -1 -12 45.8300 9.14521   6
  15  -1 -12 31.2149 10.4961   1
 -15  -1  12 35.3073 9.65430   6
 -15  -1  12 41.7179 7.82090   4
 -15  -1  12 24.8462 8.69500   3
 -15  -1  12 41.5970 5.70848   2
  15   1 -12 36.5985 10.9177   6
 -15   1  12 30.8078 8.24033   4
  15   1 -12 17.9282 9.31429   1
 -15   1  12 44.9586 9.97980   3
 -15   1  12 45.2910 9.27430   6
 -13  -1  12 40.3594 6.19986   2
  13  -1 -12 49.8840 10.5981   6
 -13  -1  12 36.3273 8.58510   4
  13  -1 -12 51.8603 14.8746   6
 -13  -1  12 42.5263 11.0346   6
  13  -1 -12 50.5291 11.3655   1
 -13   1  12 45.4762 8.02383   4
 -13   1  12 39.6081 8.93338   6
  13   1 -12 43.8402 11.1690   1
  13   1 -12 30.2767 8.32900   6
  11  -1 -12 36.7842 15.4815   1
 -11  -1  12 50.2961 7.09290   2
  11  -1 -12 49.3371 9.47294   6
  11  -1 -12 58.2453 10.0713   6
 -11  -1  12 43.6884 7.29903   4
 -11   1  12 52.4095 7.78917   4
  11   1 -12 49.9623 9.43814   6
  11   1 -12 53.2243 13.1983   1
 -11   1  12 52.4451 11.2382   6
  -9  -1  12 99.1880 9.81018   2
  -9  -1  12 97.5595 8.60032   4
   9  -1 -12 99.5123 12.6257   6
   9   1 -12 110.333 13.1521   6
  -9   1  12 81.2560 12.6099   6
  -9   1  12 93.0303 8.98046   4
  -7  -1  12 130.792 7.70365   4
  -7  -1  12 158.146 8.95808   6
  -7  -1  12 148.084 11.7174   6
   7  -1 -12 166.696 14.6385   6
   7  -1 -12 148.861 17.5637   1
  -7   1  12 141.805 8.91032   4
  -7   1  12 120.589 10.3273   6
   7   1 -12 156.965 18.0326   1
   7   1 -12 143.714 13.8017   6
   5  -1 -12 20.4459 8.65534   6
   5  -1 -12 3.86585 9.19321   1
   5   1 -12 18.6416 9.46639   1
   5   1 -12 58.3983 9.89271   6
  16  -2 -12 9.92720 6.54409   6
 -16  -2  12 3.54691 4.40477   2
 -16  -2  12 -11.041 9.63283   6
 -16  -2  12 -18.948 7.12348   3
  16   2 -12 -0.0462 6.22716   6
 -16   2  12 2.52491 7.33137   3
  16   2 -12 5.58651 8.52151   1
 -16   2  12 -11.769 6.10070   4
 -16   2  12 -0.2351 6.76943   6
  14  -2 -12 -0.4907 6.51684   6
 -14  -2  12 -1.7305 3.97048   2
 -14  -2  12 2.72714 7.80045   3
 -14  -2  12 -1.5841 10.6043   6
 -14  -2  12 -0.3784 5.10741   4
 -14   2  12 4.04897 6.13288   4
  14   2 -12 6.79771 7.84421   6
  14   2 -12 -1.4253 8.65739   1
 -14   2  12 -0.8751 7.12119   6
 -12  -2  12 16.5761 7.93723   6
 -12  -2  12 10.8599 5.24340   2
 -12  -2  12 21.0577 5.93336   4
 -12   2  12 13.6462 7.25514   6
  12   2 -12 -3.8138 7.87597   1
  12   2 -12 10.7599 7.66706   6
 -12   2  12 16.8108 6.57372   4
 -10  -2  12 -2.3666 5.82233   6
 -10  -2  12 -1.0785 4.48101   4
  10  -2 -12 0.48287 6.43472   6
  10  -2 -12 -7.9685 7.84993   1
  10  -2 -12 -3.3454 6.72610   6
  10   2 -12 10.9122 7.80558   6
 -10   2  12 -2.8625 4.94766   4
  -8  -2  12 6.85528 5.77217   2
   8  -2 -12 -1.1498 8.93303   1
   8  -2 -12 -4.5686 6.90142   6
   8  -2 -12 2.56331 7.54259   6
  -8  -2  12 19.9160 6.28993   6
  -8  -2  12 -0.5164 4.57239   6
  -8   2  12 -3.7179 4.56655   4
  -8   2  12 8.30360 6.35143   6
   8   2 -12 -5.8090 6.14572   6
   8   2 -12 -16.749 6.25278   1
  -6  -2  12 4.00221 5.60249   2
   6  -2 -12 1.70049 7.42821   6
   6  -2 -12 -10.890 8.47263   1
   6  -2 -12 -0.8954 7.53438   6
  -6   2  12 -1.7962 5.03825   6
   6   2 -12 1.34682 8.13483   1
   6   2 -12 7.66449 6.55616   6
  -6   2  12 -8.8866 4.34365   4
  13  -3 -12 0.43528 8.66439   1
  13  -3 -12 14.7080 7.11490   6
 -13  -3  12 -3.0744 4.97694   2
 -13  -3  12 -12.660 6.87327   3
 -13  -3  12 -3.9949 5.76675   6
  13   3 -12 14.4086 7.39305   6
 -13   3  12 2.68609 7.30756   6
 -13   3  12 -3.1048 5.79982   4
 -11  -3  12 83.0963 8.36118   4
 -11  -3  12 75.0148 8.97264   6
  11  -3 -12 74.1502 13.7881   1
  11  -3 -12 87.5133 13.5042   6
 -11  -3  12 77.5766 9.04597   2
 -11   3  12 75.3976 9.23306   4
  11   3 -12 72.8080 13.5231   1
  11   3 -12 70.2804 10.7827   6
  -9  -3  12 70.0589 9.39073   6
  -9  -3  12 48.4285 8.08827   2
   9  -3 -12 49.7717 12.0911   6
   9  -3 -12 57.7871 12.8928   6
   9  -3 -12 32.3296 10.2407   1
  -9  -3  12 40.4444 6.27316   4
   9   3 -12 70.9124 10.6976   6
   9   3 -12 52.5052 12.1219   1
  -9   3  12 35.7201 6.78928   4
  -9   3  12 50.8357 8.50423   6
   0   0   0    0.00    0.00   0

 _exptl_absorpt_process_details
)
 SADABS 2016/2: Krause, L., Herbst-Irmer, R., Sheldrick G.M. & Stalke D.,
 J. Appl. Cryst. 48 (2015) 3-10
)
 _exptl_absorpt_correction_type   multi-scan
 _exptl_absorpt_correction_T_max  0.2590
 _exptl_absorpt_correction_T_min  0.2354
 _exptl_special_details
)
 The following wavelength and cell were deduced by SADABS from the
 direction cosines etc. They are given here for emergency use only:
 CELL 0.71075   20.527   10.511   10.383   90.002  117.495   90.008
)
;
_shelx_hkl_checksum                13561
_olex2_submission_special_instructions  'No special instructions were received'
