data_wu_ls_limpsa_0m
_audit_creation_date               2019-07-01
_audit_creation_method
;
Olex2 1.2
(compiled 2018.05.29 svn.r3508 for OlexSys, GUI svn.r5506)
;
_shelx_SHELXL_version_number       '2018/3'
_audit_contact_author_address      ?
_audit_contact_author_email        ?
_audit_contact_author_name         ''
_audit_contact_author_phone        ?
_publ_contact_author_id_orcid      ?
_publ_section_references
;
Dolomanov, O.V., Bourhis, L.J., Gildea, R.J, Howard, J.A.K. & Puschmann, H.
 (2009), J. Appl. Cryst. 42, 339-341.

Sheldrick, G.M. (2015). Acta Cryst. A71, 3-8.

Sheldrick, G.M. (2015). Acta Cryst. C71, 3-8.
;
_chemical_name_common              ?
_chemical_name_systematic         
 'lithium (3-methoxypropyl)((trifluoromethyl)sulfonyl)amide'
_chemical_formula_moiety           'C5 H9 F3 Li N O3 S'
_chemical_formula_sum              'C5 H9 F3 Li N O3 S'
_chemical_formula_weight           227.13
_chemical_melting_point            ?
loop_
  _atom_type_symbol
  _atom_type_description
  _atom_type_scat_dispersion_real
  _atom_type_scat_dispersion_imag
  _atom_type_scat_source
 'C' 'C' 0.0181 0.0091 'International Tables Vol C Tables 4.2.6.8 and 6.1.1.4'
 'H' 'H' 0.0000 0.0000 'International Tables Vol C Tables 4.2.6.8 and 6.1.1.4'
 'Li' 'Li' 0.0008 0.0003 'International Tables Vol C Tables 4.2.6.8 and 6.1.1.4'
 'N' 'N' 0.0311 0.0180 'International Tables Vol C Tables 4.2.6.8 and 6.1.1.4'
 'O' 'O' 0.0492 0.0322 'International Tables Vol C Tables 4.2.6.8 and 6.1.1.4'
 'F' 'F' 0.0727 0.0534 'International Tables Vol C Tables 4.2.6.8 and 6.1.1.4'
 'S' 'S' 0.3331 0.5567 'International Tables Vol C Tables 4.2.6.8 and 6.1.1.4'

_shelx_space_group_comment
;
The symmetry employed for this shelxl refinement is uniquely defined
by the following loop, which should always be used as a source of
symmetry information in preference to the above space-group names.
They are only intended as comments.
;
_space_group_crystal_system        'triclinic'
_space_group_IT_number             2
_space_group_name_H-M_alt          'P -1'
_space_group_name_Hall             '-P 1'
loop_
  _space_group_symop_operation_xyz
 'x, y, z'
 '-x, -y, -z'

_cell_length_a                     5.5447(3)
_cell_length_b                     9.2150(6)
_cell_length_c                     10.2287(6)
_cell_angle_alpha                  79.888(3)
_cell_angle_beta                   83.612(3)
_cell_angle_gamma                  86.669(3)
_cell_volume                       510.92(5)
_cell_formula_units_Z              2
_cell_measurement_reflns_used      6638
_cell_measurement_temperature      200
_cell_measurement_theta_max        68.50
_cell_measurement_theta_min        4.41
_shelx_estimated_absorpt_T_max     ?
_shelx_estimated_absorpt_T_min     ?
_exptl_absorpt_coefficient_mu      3.136
_exptl_absorpt_correction_T_max    ?
_exptl_absorpt_correction_T_min    ?
_exptl_absorpt_correction_type     'none'
_exptl_absorpt_process_details     ?
_exptl_absorpt_special_details     ?
_exptl_crystal_colour              colourless
_exptl_crystal_colour_lustre       ?
_exptl_crystal_colour_primary      colourless
_exptl_crystal_density_diffrn      1.476
_exptl_crystal_density_meas        ?
_exptl_crystal_density_method      ?
_exptl_crystal_description         needle
_exptl_crystal_F_000               232
_exptl_crystal_preparation         ?
_exptl_crystal_size_max            0.5
_exptl_crystal_size_mid            0.02
_exptl_crystal_size_min            0.01
_exptl_transmission_factor_max     ?
_exptl_transmission_factor_min     ?
_diffrn_reflns_av_R_equivalents    0.0527
_diffrn_reflns_av_unetI/netI       0.0327
_diffrn_reflns_Laue_measured_fraction_full  0.993
_diffrn_reflns_Laue_measured_fraction_max  0.986
_diffrn_reflns_limit_h_max         6
_diffrn_reflns_limit_h_min         -6
_diffrn_reflns_limit_k_max         11
_diffrn_reflns_limit_k_min         -10
_diffrn_reflns_limit_l_max         12
_diffrn_reflns_limit_l_min         -12
_diffrn_reflns_number              12790
_diffrn_reflns_point_group_measured_fraction_full  0.993
_diffrn_reflns_point_group_measured_fraction_max  0.986
_diffrn_reflns_theta_full          67.679
_diffrn_reflns_theta_max           68.579
_diffrn_reflns_theta_min           4.414
_diffrn_ambient_temperature        200
_diffrn_detector                   'Bruker Photon II area detector'
_diffrn_detector_area_resol_mean   10.5
_diffrn_detector_type              'CMOS area detector'
_diffrn_measured_fraction_theta_full  0.993
_diffrn_measured_fraction_theta_max  0.986
_diffrn_measurement_device         'Kappa Four-Circle Diffractometer'
_diffrn_measurement_device_type    'Bruker D8 Venture'
_diffrn_measurement_method         '\w and \f scans'
_diffrn_radiation_monochromator    'Curved-Graphite, Bruker TRIUMPH'
_diffrn_radiation_probe            X-ray
_diffrn_radiation_type             CuK\a
_diffrn_radiation_wavelength       1.54178
_diffrn_source                     'sealed tube'
_diffrn_source_type                fine-focus
_diffrn_standards_number           0
_reflns_Friedel_coverage           0.000
_reflns_Friedel_fraction_full      .
_reflns_Friedel_fraction_max       .
_reflns_number_gt                  1683
_reflns_number_total               1865
_reflns_special_details
;
 Reflections were merged by SHELXL according to the crystal
 class for the calculation of statistics and refinement.
 
 _reflns_Friedel_fraction is defined as the number of unique
 Friedel pairs measured divided by the number that would be
 possible theoretically, ignoring centric projections and
 systematic absences.
;
_reflns_threshold_expression       'I > 2\s(I)'
_computing_cell_refinement         'SAINT v8.38A (Bruker, 2017)'
_computing_data_collection         'APEX3 v2017.3-0 (Bruker, 2017)'
_computing_data_reduction          'SAINT v8.38A (Bruker, 2017)'
_computing_molecular_graphics      'Olex2 (Dolomanov et al., 2009)'
_computing_publication_material    'Olex2 (Dolomanov et al., 2009)'
_computing_structure_refinement    'ShelXL (Sheldrick, 2015)'
_computing_structure_solution      'ShelXT (Sheldrick, 2015)'
_refine_diff_density_max           0.289
_refine_diff_density_min           -0.269
_refine_diff_density_rms           0.050
_refine_ls_extinction_coef         .
_refine_ls_extinction_method       none
_refine_ls_goodness_of_fit_ref     1.093
_refine_ls_hydrogen_treatment      constr
_refine_ls_matrix_type             full
_refine_ls_number_parameters       128
_refine_ls_number_reflns           1865
_refine_ls_number_restraints       0
_refine_ls_R_factor_all            0.0448
_refine_ls_R_factor_gt             0.0413
_refine_ls_restrained_S_all        1.093
_refine_ls_shift/su_max            0.000
_refine_ls_shift/su_mean           0.000
_refine_ls_structure_factor_coef   Fsqd
_refine_ls_weighting_details      
 'w=1/[\s^2^(Fo^2^)+(0.0627P)^2^+0.1738P] where P=(Fo^2^+2Fc^2^)/3'
_refine_ls_weighting_scheme        calc
_refine_ls_wR_factor_gt            0.1141
_refine_ls_wR_factor_ref           0.1165
_refine_special_details            ?
_olex2_refinement_description
;
1. Fixed Uiso
 At 1.2 times of:
  All C(H,H) groups
 At 1.5 times of:
  All C(H,H,H) groups
2.a Secondary CH2 refined with riding coordinates:
 C1(H1A,H1B), C2(H2A,H2B), C3(H3A,H3B)
2.b Idealised Me refined as rotating group:
 C4(H4A,H4B,H4C)
;
_atom_sites_solution_hydrogens     geom
_atom_sites_solution_primary       dual
_atom_sites_solution_secondary     ?
loop_
  _atom_site_label
  _atom_site_type_symbol
  _atom_site_fract_x
  _atom_site_fract_y
  _atom_site_fract_z
  _atom_site_U_iso_or_equiv
  _atom_site_adp_type
  _atom_site_occupancy
  _atom_site_site_symmetry_order
  _atom_site_calc_flag
  _atom_site_refinement_flags_posn
  _atom_site_refinement_flags_adp
  _atom_site_refinement_flags_occupancy
  _atom_site_disorder_assembly
  _atom_site_disorder_group
 S1 S 0.31703(8) 0.58298(6) 0.31477(5) 0.0384(2) Uani 1 1 d . . . . .
 F1 F 0.0625(3) 0.8086(2) 0.1992(2) 0.0804(5) Uani 1 1 d . . . . .
 F2 F 0.3767(4) 0.7485(2) 0.07736(15) 0.0778(5) Uani 1 1 d . . . . .
 F3 F 0.4140(4) 0.86428(19) 0.23817(19) 0.0822(6) Uani 1 1 d . . . . .
 O1 O -0.1796(4) 0.2351(2) 0.31395(18) 0.0618(5) Uani 1 1 d . . . . .
 O2 O 0.5768(3) 0.5565(2) 0.30068(17) 0.0538(4) Uani 1 1 d . . . . .
 O3 O 0.2106(3) 0.62283(19) 0.43888(15) 0.0507(4) Uani 1 1 d . . . . .
 N1 N 0.1639(3) 0.4742(2) 0.26973(18) 0.0409(4) Uani 1 1 d . . . . .
 C1 C 0.2674(4) 0.3965(3) 0.1603(3) 0.0546(6) Uani 1 1 d . . . . .
 H1A H 0.396106 0.324239 0.192187 0.065 Uiso 1 1 calc R . . . .
 H1B H 0.341516 0.468469 0.085279 0.065 Uiso 1 1 calc R . . . .
 C2 C 0.0707(5) 0.3175(4) 0.1125(3) 0.0623(7) Uani 1 1 d . . . . .
 H2A H -0.064778 0.389490 0.091056 0.075 Uiso 1 1 calc R . . . .
 H2B H 0.137028 0.283474 0.028656 0.075 Uiso 1 1 calc R . . . .
 C3 C -0.0295(5) 0.1884(3) 0.2078(3) 0.0647(7) Uani 1 1 d . . . . .
 H3A H -0.124313 0.130257 0.160277 0.078 Uiso 1 1 calc R . . . .
 H3B H 0.105732 0.124016 0.243374 0.078 Uiso 1 1 calc R . . . .
 C4 C -0.3049(10) 0.1180(5) 0.3992(4) 0.1107(16) Uani 1 1 d . . . . .
 H4A H -0.401685 0.068926 0.346611 0.166 Uiso 1 1 calc GR . . . .
 H4B H -0.412303 0.157959 0.468247 0.166 Uiso 1 1 calc GR . . . .
 H4C H -0.186954 0.046675 0.441524 0.166 Uiso 1 1 calc GR . . . .
 C5 C 0.2911(5) 0.7605(3) 0.2019(3) 0.0552(6) Uani 1 1 d . . . . .
 Li1 Li 0.8376(6) 0.4278(4) 0.3695(4) 0.0423(8) Uani 1 1 d . . . . .

loop_
  _atom_site_aniso_label
  _atom_site_aniso_U_11
  _atom_site_aniso_U_22
  _atom_site_aniso_U_33
  _atom_site_aniso_U_23
  _atom_site_aniso_U_13
  _atom_site_aniso_U_12
 S1 0.0284(3) 0.0488(3) 0.0394(3) -0.0112(2) -0.00246(19) -0.0043(2)
 F1 0.0727(11) 0.0670(11) 0.1012(13) -0.0105(9) -0.0258(10) 0.0196(8)
 F2 0.1029(14) 0.0801(12) 0.0465(8) -0.0020(8) 0.0006(8) -0.0136(10)
 F3 0.1068(14) 0.0593(10) 0.0848(12) -0.0079(8) -0.0197(10) -0.0335(9)
 O1 0.0818(13) 0.0534(10) 0.0530(10) -0.0160(8) 0.0048(9) -0.0277(9)
 O2 0.0272(8) 0.0712(11) 0.0650(10) -0.0155(8) -0.0074(7) -0.0028(7)
 O3 0.0516(9) 0.0612(10) 0.0426(8) -0.0191(7) 0.0003(7) -0.0096(7)
 N1 0.0284(8) 0.0504(11) 0.0465(10) -0.0176(8) 0.0014(7) -0.0046(7)
 C1 0.0403(12) 0.0721(16) 0.0570(14) -0.0317(12) 0.0046(10) -0.0055(11)
 C2 0.0571(15) 0.087(2) 0.0515(14) -0.0336(14) -0.0003(11) -0.0157(13)
 C3 0.0628(16) 0.0565(16) 0.0834(19) -0.0350(14) -0.0087(14) -0.0024(12)
 C4 0.173(4) 0.094(3) 0.070(2) -0.0039(18) -0.003(2) -0.087(3)
 C5 0.0594(15) 0.0521(15) 0.0564(14) -0.0110(11) -0.0095(11) -0.0088(11)
 Li1 0.0310(17) 0.053(2) 0.0449(19) -0.0164(16) -0.0005(14) -0.0062(15)

_geom_special_details
;
 All esds (except the esd in the dihedral angle between two l.s. planes)
 are estimated using the full covariance matrix.  The cell esds are taken
 into account individually in the estimation of esds in distances, angles
 and torsion angles; correlations between esds in cell parameters are only
 used when they are defined by crystal symmetry.  An approximate (isotropic)
 treatment of cell esds is used for estimating esds involving l.s. planes.
;
loop_
  _geom_bond_atom_site_label_1
  _geom_bond_atom_site_label_2
  _geom_bond_distance
  _geom_bond_site_symmetry_2
  _geom_bond_publ_flag
 S1 O2 1.4423(15) . ?
 S1 O3 1.4375(16) . ?
 S1 N1 1.5117(18) . ?
 S1 C5 1.838(3) . ?
 F1 C5 1.320(3) . ?
 F2 C5 1.330(3) . ?
 F3 C5 1.331(3) . ?
 O1 C3 1.407(3) . ?
 O1 C4 1.424(4) . ?
 O1 Li1 1.968(4) 1_455 ?
 O2 Li1 1.931(4) . ?
 O3 Li1 1.926(4) 2_666 ?
 N1 C1 1.478(3) . ?
 N1 Li1 2.006(4) 1_455 ?
 C1 C2 1.515(3) . ?
 C2 C3 1.491(4) . ?

loop_
  _geom_angle_atom_site_label_1
  _geom_angle_atom_site_label_2
  _geom_angle_atom_site_label_3
  _geom_angle
  _geom_angle_site_symmetry_1
  _geom_angle_site_symmetry_3
  _geom_angle_publ_flag
 O2 S1 N1 117.27(10) . . ?
 O2 S1 C5 100.32(11) . . ?
 O3 S1 O2 116.78(10) . . ?
 O3 S1 N1 110.99(10) . . ?
 O3 S1 C5 100.76(11) . . ?
 N1 S1 C5 108.27(11) . . ?
 C3 O1 C4 113.3(3) . . ?
 C3 O1 Li1 124.26(18) . 1_455 ?
 C4 O1 Li1 120.8(2) . 1_455 ?
 S1 O2 Li1 143.57(16) . . ?
 S1 O3 Li1 147.74(17) . 2_666 ?
 S1 N1 Li1 119.04(14) . 1_455 ?
 C1 N1 S1 118.89(14) . . ?
 C1 N1 Li1 121.89(17) . 1_455 ?
 N1 C1 C2 110.21(19) . . ?
 C3 C2 C1 115.8(2) . . ?
 O1 C3 C2 110.7(2) . . ?
 F1 C5 S1 111.29(18) . . ?
 F1 C5 F2 107.1(2) . . ?
 F1 C5 F3 107.7(2) . . ?
 F2 C5 S1 111.19(18) . . ?
 F2 C5 F3 107.5(2) . . ?
 F3 C5 S1 111.95(18) . . ?
 O1 Li1 S1 118.85(16) 1_655 1_655 ?
 O1 Li1 N1 95.38(17) 1_655 1_655 ?
 O2 Li1 S1 110.99(17) . 1_655 ?
 O2 Li1 O1 108.82(18) . 1_655 ?
 O2 Li1 N1 113.5(2) . 1_655 ?
 O3 Li1 S1 104.18(14) 2_666 1_655 ?
 O3 Li1 O1 102.14(19) 2_666 1_655 ?
 O3 Li1 O2 111.36(18) 2_666 . ?
 O3 Li1 N1 122.64(19) 2_666 1_655 ?
 N1 Li1 S1 25.75(7) 1_655 1_655 ?

_shelx_res_file
;
TITL wu_ls_limpsa_0m_a.res in P-1
    wu_ls_limpsa_0m.res
    created by SHELXL-2018/3 at 16:20:30 on 27-Jun-2019
REM Old TITL wu_ls_limpsa_0m_a.res in P-1
REM SHELXT solution in P-1: R1 0.146, Rweak 0.011, Alpha 0.073
REM <I/s> 0.000 for 0 systematic absences, Orientation as input
REM Formula found by SHELXT: C5 Li N2 O2 F3 S
CELL 1.54178 5.5447 9.215 10.2287 79.888 83.612 86.669
ZERR 2 0.0003 0.0006 0.0006 0.003 0.003 0.003
LATT 1
SFAC C H Li N O F S
UNIT 10 18 2 2 6 6 2
EQIV $1 -1+X,+Y,+Z

L.S. 10 0 0
PLAN  20
TEMP -73.15
FREE S1 Li1_$1
BOND
list 4
fmap 2 53
ACTA
REM <olex2.extras>
REM <HklSrc "%.\\Wu_LS_LiMPSA_0m.hkl">
REM </olex2.extras>

WGHT    0.062700    0.173800
FVAR       1.42449
S1    7    0.317033    0.582981    0.314774    11.00000    0.02836    0.04875 =
         0.03943   -0.01118   -0.00246   -0.00431
F1    6    0.062500    0.808620    0.199189    11.00000    0.07268    0.06705 =
         0.10119   -0.01051   -0.02584    0.01965
F2    6    0.376673    0.748536    0.077360    11.00000    0.10291    0.08014 =
         0.04654   -0.00198    0.00061   -0.01361
F3    6    0.413977    0.864275    0.238171    11.00000    0.10677    0.05931 =
         0.08481   -0.00792   -0.01973   -0.03348
O1    5   -0.179642    0.235092    0.313949    11.00000    0.08182    0.05343 =
         0.05299   -0.01599    0.00476   -0.02766
O2    5    0.576815    0.556537    0.300679    11.00000    0.02724    0.07115 =
         0.06498   -0.01547   -0.00739   -0.00278
O3    5    0.210590    0.622826    0.438878    11.00000    0.05156    0.06124 =
         0.04264   -0.01915    0.00028   -0.00960
N1    4    0.163941    0.474226    0.269725    11.00000    0.02845    0.05039 =
         0.04653   -0.01758    0.00138   -0.00464
C1    1    0.267364    0.396543    0.160302    11.00000    0.04031    0.07206 =
         0.05703   -0.03172    0.00463   -0.00555
AFIX  23
H1A   2    0.396106    0.324239    0.192187    11.00000   -1.20000
H1B   2    0.341516    0.468469    0.085279    11.00000   -1.20000
AFIX   0
C2    1    0.070681    0.317492    0.112511    11.00000    0.05714    0.08650 =
         0.05151   -0.03358   -0.00032   -0.01570
AFIX  23
H2A   2   -0.064778    0.389490    0.091056    11.00000   -1.20000
H2B   2    0.137028    0.283474    0.028656    11.00000   -1.20000
AFIX   0
C3    1   -0.029498    0.188393    0.207753    11.00000    0.06277    0.05645 =
         0.08343   -0.03499   -0.00872   -0.00235
AFIX  23
H3A   2   -0.124313    0.130257    0.160277    11.00000   -1.20000
H3B   2    0.105732    0.124016    0.243374    11.00000   -1.20000
AFIX   0
C4    1   -0.304917    0.118033    0.399235    11.00000    0.17280    0.09353 =
         0.06974   -0.00386   -0.00306   -0.08686
AFIX 137
H4A   2   -0.401685    0.068926    0.346611    11.00000   -1.50000
H4B   2   -0.412303    0.157959    0.468247    11.00000   -1.50000
H4C   2   -0.186954    0.046675    0.441524    11.00000   -1.50000
AFIX   0
C5    1    0.291118    0.760541    0.201915    11.00000    0.05939    0.05209 =
         0.05638   -0.01098   -0.00952   -0.00880
LI1   3    0.837639    0.427847    0.369472    11.00000    0.03104    0.05346 =
         0.04493   -0.01639   -0.00046   -0.00619
HKLF 4




REM  wu_ls_limpsa_0m_a.res in P-1
REM wR2 = 0.1165, GooF = S = 1.093, Restrained GooF = 1.093 for all data
REM R1 = 0.0413 for 1683 Fo > 4sig(Fo) and 0.0448 for all 1865 data
REM 128 parameters refined using 0 restraints

END

WGHT      0.0626      0.1742

REM Highest difference peak  0.289,  deepest hole -0.269,  1-sigma level  0.050
Q1    1   0.3085  0.6579  0.2508  11.00000  0.05    0.29
Q2    1   0.2427  0.6926  0.3807  11.00000  0.05    0.22
Q3    1   0.5148  0.7349  0.1231  11.00000  0.05    0.22
Q4    1   0.5468  0.4968  0.3636  11.00000  0.05    0.22
Q5    1   0.1121  0.8229  0.2786  11.00000  0.05    0.20
Q6    1   0.2489  0.8049  0.1183  11.00000  0.05    0.19
Q7    1  -0.2469  0.0970  0.4919  11.00000  0.05    0.19
Q8    1   0.5579  0.7987  0.2459  11.00000  0.05    0.19
Q9    1   0.3011  0.5910  0.3996  11.00000  0.05    0.19
Q10   1   0.4570  0.8339  0.1324  11.00000  0.05    0.17
Q11   1   0.4232  0.3689  0.1407  11.00000  0.05    0.17
Q12   1   0.2230  0.2246  0.2437  11.00000  0.05    0.16
Q13   1   0.1636  0.2599  0.1840  11.00000  0.05    0.16
Q14   1   0.3018  0.5574  0.4719  11.00000  0.05    0.16
Q15   1   0.4688  0.5719  0.3005  11.00000  0.05    0.16
Q16   1   0.2064  0.2064  0.2621  11.00000  0.05    0.16
Q17   1   0.4985  0.4978  0.2866  11.00000  0.05    0.16
Q18   1   0.0470  0.4490  0.3000  11.00000  0.05    0.15
Q19   1   0.1757  0.1791  0.2971  11.00000  0.05    0.15
Q20   1   0.6528  0.4954  0.2979  11.00000  0.05    0.15
;
_shelx_res_checksum                36122
_shelx_hkl_file
;
  -1   0   0   31.00    3.40
   1   0   0   38.90    3.20
   1   0   0   34.80    3.60
  -2   0   0  944.31   51.09
  -2   0   0  885.61   51.69
  -2   0   0  983.50   52.89
  -2   0   0  929.61   55.29
   2   0   0  937.51   50.99
   2   0   0  956.10   51.69
   2   0   0  897.81   55.59
   2   0   0  949.01   52.49
  -3   0   0  309.27   19.20
  -3   0   0  360.66   25.70
  -3   0   0  280.37   23.30
  -3   0   0  315.07   19.90
  -3   0   0  282.77   22.70
   3   0   0  295.07   26.20
   3   0   0  291.57   19.30
   3   0   0  315.37   19.10
   3   0   0  276.17   21.00
   3   0   0  317.97   20.30
  -4   0   0   59.89    8.20
  -4   0   0   42.00    5.50
  -4   0   0   64.29    9.50
  -4   0   0   68.69   12.10
  -4   0   0   42.00    4.90
  -4   0   0   50.19    9.90
   4   0   0   51.29    7.60
   4   0   0   42.10    5.40
   4   0   0   54.69   14.80
   4   0   0   49.40    7.60
   4   0   0   41.90    5.30
   4   0   0   60.39    5.60
  -5   0   0   11.80    7.70
  -5   0   0   14.40    6.00
  -5   0   0   16.30    4.60
  -5   0   0    6.80    3.60
  -5   0   0    6.20    3.20
   5   0   0    7.70    3.00
   5   0   0   12.10    3.10
  -6   0   0   32.60    4.90
  -6   0   0   43.50    4.90
   6   0   0   48.50    4.60
   6   0   0   37.90    4.50
   6  -1   0   50.39    5.60
  -6   1   0   52.59    5.20
  -6   1   0   46.50    5.00
  -6   1   0   48.60    5.40
   5  -1   0   85.29    9.10
   5  -1   0   85.79    7.20
  -5   1   0   89.69   11.20
  -5   1   0   86.29    8.20
  -5   1   0   80.79    9.00
  -5   1   0   76.29   15.40
   4  -1   0   32.40   10.60
   4  -1   0   43.10    6.20
   4  -1   0   31.40   12.50
   4  -1   0   26.70    6.70
   4  -1   0   32.80    6.90
   4  -1   0   31.90    4.00
  -4   1   0   44.10   10.60
  -4   1   0   23.90    5.30
  -4   1   0   39.80    5.10
  -4   1   0   38.00    4.50
  -4   1   0   38.40    7.70
  -4   1   0   26.30    6.30
  -4   1   0   28.80    4.10
   3  -1   0   26.70    5.60
   3  -1   0   41.80    9.60
   3  -1   0   27.20   10.20
   3  -1   0   15.40    6.10
   3  -1   0   26.40    3.70
  -3   1   0   18.30    3.20
  -3   1   0   23.50    5.80
  -3   1   0   24.10    4.50
  -3   1   0   28.70    7.40
  -3   1   0   30.30    4.90
   2  -1   0 2758.22  141.49
   2  -1   0 2568.94  136.29
   2  -1   0 2578.64  134.79
   2  -1   0 2570.34  136.79
  -2   1   0 2533.25  135.49
  -2   1   0 2277.87  138.39
  -2  -1   0  570.34   30.40
  -2  -1   0  496.55   28.40
  -2  -1   0  466.65   29.00
  -2  -1   0  459.95   33.10
   2   1   0  463.75   28.70
   2   1   0  523.25   32.40
   2   1   0  552.34   30.90
   2   1   0  484.55   28.70
  -3  -1   0    8.60    6.20
  -3  -1   0    6.90    3.50
  -3  -1   0    2.20    7.40
  -3  -1   0   14.80    4.20
   3   1   0    7.40    5.90
   3   1   0    9.80    3.90
   3   1   0    6.50    3.10
  -4  -1   0  125.79   10.50
  -4  -1   0   93.49    8.50
  -4  -1   0  112.19   10.50
  -4  -1   0  136.39   17.80
  -4  -1   0  108.19   17.50
  -4  -1   0  122.49   16.40
   4   1   0   98.39    8.70
   4   1   0  125.19   10.10
   4   1   0   98.09    8.00
   4   1   0  118.59   16.80
   4   1   0  111.79   10.40
   4   1   0   95.09    8.90
  -5  -1   0    2.20    4.40
  -5  -1   0    0.80    6.40
  -5  -1   0    6.30    9.90
  -5  -1   0   -0.40    2.80
  -5  -1   0   -4.50    5.40
  -5  -1   0   -0.30    2.40
  -5  -1   0    3.80    3.80
   5   1   0    0.50    2.20
   5   1   0    2.40    3.40
  -6  -1   0   32.50    5.70
  -6  -1   0   54.89    6.50
   6   1   0   45.10    4.50
   6  -2   0    4.50    2.30
   6  -2   0    0.50    2.20
  -6   2   0    4.50    2.60
   5  -2   0  204.68   13.30
   5  -2   0  187.88   20.00
   5  -2   0  213.28   16.60
   5  -2   0  221.28   14.90
  -5   2   0  185.48   13.40
  -5   2   0  204.28   16.30
  -5   2   0  208.68   22.60
  -5   2   0  207.38   14.20
   4  -2   0   19.70    9.10
   4  -2   0   29.50    6.10
   4  -2   0   19.30    3.40
   4  -2   0   23.40    4.60
   4  -2   0   30.20    8.40
  -4   2   0   18.70    4.30
  -4   2   0   26.40    7.80
  -4   2   0   41.90    8.40
  -4   2   0   24.50    8.60
  -4   2   0   25.30    7.10
  -4   2   0   33.70    5.70
   3  -2   0 1294.67   75.69
   3  -2   0 1276.97   82.59
   3  -2   0 1328.67   75.19
   3  -2   0 1318.07   72.69
  -3   2   0 1287.77   72.89
  -3   2   0 1353.26   80.29
  -3   2   0 1390.96   78.49
   2  -2   0  358.76   21.30
   2  -2   0  383.56   19.10
  -2   2   0  294.97   19.80
  -2   2   0  386.06   20.60
  -2   2   0  276.77   23.10
  -2   2   0  276.27   21.70
   1  -2   0 1245.08   71.19
   1  -2   0 1274.17   67.09
   1  -2   0 1273.97   68.19
   1  -2   0 1253.77   69.49
  -1   2   0 1270.07   67.09
  -1   2   0 1246.68   69.89
  -1   2   0 1329.87   68.59
  -1   2   0 1205.28   67.99
   0   2   0 1185.58   61.49
   0   2   0 1030.80   62.49
   0   2   0 1238.88   61.49
  -1  -2   0  233.68   15.80
  -1  -2   0  196.48   15.70
  -1  -2   0  233.28   12.90
  -1  -2   0  231.18   13.40
   1   2   0  211.68   15.90
   1   2   0  234.78   13.90
   1   2   0  230.68   13.10
  -2  -2   0  299.47   18.70
  -2  -2   0  327.37   21.40
  -2  -2   0  336.57   24.00
  -2  -2   0  330.17   20.30
   2   2   0  320.17   18.70
   2   2   0  292.87   22.50
   2   2   0  315.87   18.20
  -3  -2   0  771.12   42.40
  -3  -2   0  611.14   37.40
  -3  -2   0  692.73   38.20
  -3  -2   0  598.54   45.00
   3   2   0  620.84   38.30
   3   2   0  660.43   44.30
   3   2   0  649.43   37.30
  -4  -2   0  176.58   19.60
  -4  -2   0  161.88   13.60
  -4  -2   0  172.18   12.70
  -4  -2   0  123.19   10.80
  -4  -2   0  123.59   18.30
  -4  -2   0  170.88   18.10
   4   2   0  135.29   10.30
   4   2   0  144.09   11.70
   4   2   0  163.58   11.10
   4   2   0  141.59    9.60
   4   2   0  164.28   12.90
  -5  -2   0  108.49   10.40
  -5  -2   0  128.39   14.20
  -5  -2   0  104.49    9.10
  -5  -2   0  101.89   14.70
   5   2   0  112.49    9.10
   5   2   0  115.69   10.30
  -6  -2   0   78.49    6.40
  -6  -2   0   75.39    7.80
   6   2   0   78.09    6.00
   6  -3   0    3.30    1.30
   6  -3   0    2.90    2.40
  -6   3   0    5.10    2.20
   5  -3   0   45.20    5.20
   5  -3   0   52.79    8.60
   5  -3   0   40.20    7.30
   5  -3   0   63.59   13.70
  -5   3   0   44.90    7.70
  -5   3   0   46.50    6.10
   4  -3   0   69.79   10.60
   4  -3   0   79.39    8.30
   4  -3   0   71.99   18.10
   4  -3   0   62.39   13.80
  -4   3   0   74.39    7.50
  -4   3   0   63.49    5.60
  -4   3   0   72.29    7.80
  -4   3   0   83.69   11.30
  -4   3   0   63.89    8.80
  -4   3   0   73.19   12.10
   3  -3   0  175.88   12.50
   3  -3   0  150.08   13.90
   3  -3   0  200.18   23.70
  -3   3   0  119.69   14.40
  -3   3   0  124.39   14.10
  -3   3   0  134.29    9.70
  -3   3   0  169.88   12.40
   2  -3   0   94.09   10.60
   2  -3   0   90.99   11.00
  -2   3   0   84.69    8.40
  -2   3   0   80.59   10.30
   1  -3   0    6.60    1.70
   1  -3   0   13.80    6.30
   1  -3   0   10.60    2.90
  -1   3   0   12.70    3.60
  -1   3   0   12.40    3.50
  -1   3   0    5.90    3.80
   0  -3   0 2732.73  142.59
   0  -3   0 2720.13  142.09
   0   3   0 2776.62  142.09
   0   3   0 2927.71  142.49
   0   3   0 2261.37  143.39
  -1  -3   0   21.50    3.50
  -1  -3   0   13.40    2.80
   1   3   0   17.20    4.40
   1   3   0   19.70    3.40
  -2  -3   0  793.52   43.90
  -2  -3   0  753.42   48.60
  -2  -3   0  722.43   43.00
   2   3   0  752.52   43.40
   2   3   0  774.62   42.10
  -3  -3   0  152.58   11.90
  -3  -3   0  194.78   20.20
  -3  -3   0  157.88   12.80
  -3  -3   0  146.39   15.80
   3   3   0  166.28   11.50
   3   3   0  168.28   14.00
  -4  -3   0  440.86   29.00
  -4  -3   0  444.16   38.40
  -4  -3   0  446.76   27.40
  -4  -3   0  427.96   28.70
  -4  -3   0  464.75   34.10
   4   3   0  439.16   25.70
   4   3   0  463.35   29.30
   4   3   0  525.45   31.20
   4   3   0  459.75   26.60
   4   3   0  439.46   27.90
  -5  -3   0  164.18   17.30
  -5  -3   0  176.68   23.00
  -5  -3   0  173.28   21.40
  -5  -3   0  177.78   13.70
   5   3   0  174.38   11.20
  -6  -3   0   59.19    6.70
  -6  -3   0   34.80    7.20
  -6  -3   0   48.90    5.50
   6   3   0   48.40    4.40
   6   3   0   43.70    4.40
   6  -4   0    4.00    2.20
  -6   4   0    1.50    2.20
   5  -4   0   -7.80    7.00
   5  -4   0    2.40    3.80
   5  -4   0   -7.80    9.30
  -5   4   0    5.90    3.20
  -5   4   0    3.50    2.40
   4  -4   0  315.27   22.30
   4  -4   0  337.27   21.10
   4  -4   0  298.27   28.70
   4  -4   0  252.97   33.20
  -4   4   0  341.97   28.60
  -4   4   0  331.77   19.60
  -4   4   0  343.97   24.20
  -4   4   0  334.87   21.30
  -4   4   0  332.07   22.80
  -4   4   0  302.87   22.50
   3  -4   0   24.30    4.40
   3  -4   0   23.80    6.00
   3  -4   0   32.30    8.80
   3  -4   0   24.70   10.60
   3  -4   0   22.10    5.40
  -3   4   0   33.60    7.90
  -3   4   0   25.30    4.30
  -3   4   0   25.10    8.10
  -3   4   0   32.50    6.50
  -3   4   0   23.60    3.30
  -3   4   0   27.60    5.70
   2  -4   0  166.88   14.10
   2  -4   0  185.98   20.50
   2  -4   0  158.78   11.60
   2  -4   0  154.58   13.30
  -2   4   0  158.08   12.10
  -2   4   0  155.48   14.80
   1  -4   0 1129.59   60.79
   1  -4   0 1110.79   59.09
   1  -4   0 1078.09   65.79
  -1   4   0 1020.20   62.19
  -1   4   0 1102.99   60.99
   0  -4   0  150.28   10.20
   0  -4   0  137.59   10.50
   0   4   0  121.69   11.40
   0   4   0  128.49   11.30
   0   4   0  132.69   11.30
  -1  -4   0  132.59   12.60
  -1  -4   0  113.19   10.20
   1   4   0  121.99    9.70
   1   4   0  120.29   13.50
   1   4   0  137.49   11.40
  -2  -4   0    7.50    5.70
  -2  -4   0    4.20    2.70
  -2  -4   0    0.90    6.10
   2   4   0    0.00    2.50
   2   4   0   -0.80    4.50
  -3  -4   0  169.88   15.60
  -3  -4   0  197.28   13.70
  -3  -4   0  211.68   21.60
  -3  -4   0  170.28   17.10
   3   4   0  189.18   13.90
   3   4   0  225.08   17.60
   3   4   0  208.78   16.70
   3   4   0  210.18   13.80
   3   4   0  221.88   15.00
  -4  -4   0  725.43   48.60
  -4  -4   0  754.52   43.60
  -4  -4   0  689.63   41.80
  -4  -4   0  713.63   41.70
   4   4   0  710.23   41.30
   4   4   0  727.03   42.60
   4   4   0  798.72   45.70
   4   4   0  745.23   40.00
   4   4   0  724.63   44.60
  -5  -4   0   84.69   15.80
  -5  -4   0  106.79   13.70
  -5  -4   0   88.69    8.60
  -5  -4   0  100.19   17.40
   5   4   0   85.99    8.70
   5   4   0   81.79    6.30
   5   4   0   83.29   10.40
   5   4   0   94.49    9.90
  -6  -4   0    3.30    5.30
  -6  -4   0    5.70    2.70
   6   4   0    4.30    1.30
   6   4   0    2.10    2.60
   5  -5   0    2.00    2.60
   5  -5   0    8.40    8.70
   5  -5   0    1.70    5.90
  -5   5   0   -1.50    2.30
  -5   5   0    4.20    2.70
   4  -5   0   52.69    9.30
   4  -5   0   45.90    6.30
  -4   5   0   44.30    7.80
  -4   5   0   52.99    7.70
  -4   5   0   45.10    9.20
  -4   5   0   54.59    6.10
  -4   5   0   53.49    8.40
   3  -5   0  521.75   32.40
   3  -5   0  459.95   44.00
   3  -5   0  535.35   31.30
   3  -5   0  517.25   36.80
  -3   5   0  539.45   32.70
  -3   5   0  531.25   30.40
  -3   5   0  558.64   38.70
  -3   5   0  554.64   33.50
  -3   5   0  520.75   29.30
  -3   5   0  512.35   31.60
   2  -5   0   27.00    5.80
   2  -5   0   37.80   11.30
   2  -5   0   28.30    4.70
   2  -5   0   19.90    6.80
  -2   5   0   23.00    6.70
  -2   5   0   33.30    9.80
  -2   5   0   26.40    5.80
   1  -5   0    6.00    6.90
   1  -5   0    8.20    3.20
   1  -5   0    2.90    1.30
   1  -5   0    2.90    2.40
  -1   5   0    3.10    3.20
  -1   5   0    4.50    5.20
   0  -5   0 1251.77   66.79
   0  -5   0 1167.48   67.29
   0  -5   0 1155.58   69.99
   0  -5   0 1248.28   65.49
   0   5   0 1115.59   68.79
   0   5   0 1161.18   65.89
   0   5   0 1169.68   65.19
  -1  -5   0  262.57   16.50
  -1  -5   0  281.07   21.20
  -1  -5   0  238.28   19.20
   1   5   0  250.77   17.80
   1   5   0  251.07   21.30
   1   5   0  260.77   17.50
  -2  -5   0  186.78   14.80
  -2  -5   0  186.78   12.90
  -2  -5   0  209.28   19.80
   2   5   0  190.28   16.10
   2   5   0  187.38   15.10
   2   5   0  183.78   13.60
   2   5   0  177.68   11.50
   2   5   0  178.78   12.70
   2   5   0  186.98   13.50
  -3  -5   0    1.90    4.50
  -3  -5   0   -3.80    5.70
  -3  -5   0    0.90    6.90
   3   5   0    1.70    5.30
   3   5   0    1.40    1.40
   3   5   0    1.00    2.70
   3   5   0    5.80    2.40
   3   5   0   10.60    8.50
   3   5   0    3.70    3.30
   3   5   0   10.80    2.70
   3   5   0    4.80    4.80
  -4  -5   0  421.56   23.80
  -4  -5   0  356.36   25.20
  -4  -5   0  362.46   31.00
   4   5   0  350.36   23.80
   4   5   0  371.66   24.00
   4   5   0  375.36   21.20
   4   5   0  366.96   27.10
   4   5   0  420.76   22.80
   4   5   0  385.26   27.00
  -5  -5   0  148.19   11.50
  -5  -5   0  135.99   18.90
  -5  -5   0  144.49   20.50
  -5  -5   0  125.29   14.80
   5   5   0  147.09   11.40
   5   5   0  143.99    8.70
   5   5   0  141.49   10.70
   5   5   0  136.29   12.70
   5   5   0  152.48    9.90
  -6  -5   0    3.20    2.20
  -6  -5   0    6.60    3.30
   6   5   0    4.30    1.50
   5  -6   0   11.00    9.90
   5  -6   0   17.20    6.20
   5  -6   0   18.30    3.10
  -5   6   0   18.40    4.60
  -5   6   0   21.20    3.40
   4  -6   0    1.30    6.60
   4  -6   0    6.90    3.50
   4  -6   0   20.70    8.20
  -4   6   0    5.00    2.40
  -4   6   0    4.40    6.80
  -4   6   0    2.70    7.10
  -4   6   0    3.70    4.20
  -4   6   0    7.40    3.00
   3  -6   0  218.88   17.80
   3  -6   0  233.78   15.70
   3  -6   0  205.78   22.50
  -3   6   0  234.28   20.90
  -3   6   0  236.88   13.60
  -3   6   0  236.88   20.00
  -3   6   0  246.28   17.80
  -3   6   0  235.18   14.90
  -3   6   0  229.58   15.40
  -3   6   0  216.58   18.90
   2  -6   0   81.19    8.30
   2  -6   0   71.49   10.60
   2  -6   0   69.09   15.40
  -2   6   0   69.59    6.90
  -2   6   0   88.59    4.70
  -2   6   0   93.49   12.70
  -2   6   0   88.99   10.00
  -2   6   0   70.79    7.30
  -2   6   0   78.69   11.90
  -2   6   0   60.29    8.60
   1  -6   0   64.39    8.10
   1  -6   0   55.19   12.30
   1  -6   0   48.20    6.30
  -1   6   0   69.49    9.70
  -1   6   0   61.69    6.60
  -1   6   0   62.79    9.20
  -1   6   0   43.90    8.00
  -1   6   0   46.70   10.70
   0  -6   0  583.84   41.10
   0  -6   0  680.43   37.80
   0  -6   0  647.64   38.80
   0  -6   0  538.05   41.70
   0  -6   0  641.74   38.50
   0   6   0  598.04   34.90
   0   6   0  665.43   38.70
   0   6   0  639.64   41.00
   0   6   0  567.64   34.80
   0   6   0  617.94   36.70
   0   6   0  666.63   37.70
  -1  -6   0  749.62   43.20
  -1  -6   0  799.22   46.40
  -1  -6   0  793.52   49.00
  -1  -6   0  706.03   48.70
   1   6   0  746.73   44.30
   1   6   0  729.43   44.00
   1   6   0  734.33   42.50
   1   6   0  784.62   44.70
   1   6   0  774.72   50.49
   1   6   0  721.23   41.10
  -2  -6   0 1984.80  106.49
  -2  -6   0 1550.94   96.09
   2   6   0 1707.23   97.19
   2   6   0 1837.52   98.39
   2   6   0 1799.52   93.59
   2   6   0 1775.32   94.29
   2   6   0 1765.52   94.99
   2   6   0 1724.53   95.09
   2   6   0 1648.64   96.19
  -3  -6   0   95.99   10.30
  -3  -6   0   88.49   16.00
  -3  -6   0   96.99   14.30
   3   6   0   99.39   11.70
   3   6   0   83.39    9.10
   3   6   0   72.99    8.60
   3   6   0   78.29    7.30
   3   6   0   91.79   12.70
  -4  -6   0    1.20    8.50
  -4  -6   0    4.70    5.80
  -4  -6   0    8.40    3.40
   4   6   0    0.60    5.40
   4   6   0    7.20    2.60
   4   6   0   13.80    5.00
   4   6   0    8.20    5.50
  -5  -6   0   53.49   13.00
  -5  -6   0   63.49    8.80
  -5  -6   0   80.79    6.50
   5   6   0   70.59    8.10
   5   6   0   62.19    5.70
   5   6   0   69.49    6.90
   5   6   0   53.99    7.90
   4  -7   0   21.20   17.20
   4  -7   0   22.70    5.80
  -4   7   0   18.70    5.30
  -4   7   0   30.20    6.40
  -4   7   0   16.80    6.80
   3  -7   0   24.80   10.10
   3  -7   0   41.80    4.60
   3  -7   0   31.30    7.10
  -3   7   0   31.70    7.00
  -3   7   0   30.40    9.80
  -3   7   0   39.30    7.90
   2  -7   0  102.89   11.40
   2  -7   0  116.79   13.20
   2  -7   0  106.39   18.80
  -2   7   0  118.39    9.90
  -2   7   0  119.09   11.70
  -2   7   0  130.49   15.70
  -2   7   0  102.19    8.80
  -2   7   0  139.59   13.30
   1  -7   0    0.30    7.40
  -1   7   0   10.80    6.40
  -1   7   0   11.00    3.60
  -1   7   0   12.30    4.90
  -1   7   0   12.20    5.50
  -1   7   0    7.40    3.10
  -1   7   0    9.30    6.20
   0   7   0  140.89    9.40
   0   7   0  124.59   12.10
   0   7   0  129.89   14.80
   0   7   0  116.69   11.20
   0   7   0  125.49   13.90
   0   7   0  170.78   18.40
   0   7   0  125.69   10.60
   0   7   0  138.29   10.10
   0   7   0  140.49   11.00
  -1  -7   0 1562.04   90.99
   1   7   0 1598.04   87.39
   1   7   0 1533.75   88.39
   1   7   0 1577.14   88.49
   1   7   0 1622.54   85.49
   1   7   0 1596.44   84.69
   1   7   0 1599.54   87.79
   1   7   0 1537.85   83.99
   1   7   0 1469.05   85.09
   1   7   0 1595.64   85.69
  -2  -7   0   44.00    8.30
  -2  -7   0   44.90    8.30
   2   7   0   34.00    5.80
   2   7   0   31.70    6.40
   2   7   0   48.10    9.60
   2   7   0   32.90    4.30
   2   7   0   36.00    4.80
   2   7   0   34.10    6.40
  -3  -7   0  158.78   13.80
   3   7   0  178.58   14.30
   3   7   0  143.49   16.60
   3   7   0  169.88   13.20
   3   7   0  181.08   16.90
   3   7   0  178.78   11.40
  -4  -7   0    3.90    5.50
  -4  -7   0   10.60    9.60
  -4  -7   0   21.70    9.90
   4   7   0   10.50    4.20
   4   7   0   10.20    3.90
   4   7   0   12.40    3.00
   4   7   0    8.70    7.80
  -5  -7   0   -1.00    4.10
  -5  -7   0    0.00    3.90
  -5  -7   0    4.00    3.60
  -5  -7   0   -0.40    2.50
   5   7   0   -0.40    3.60
   5   7   0   11.50    5.70
   5   7   0    0.40    1.40
   4  -8   0    5.90    4.30
   4  -8   0    6.80    6.20
  -4   8   0   -0.90    4.70
  -4   8   0    7.30    3.30
  -4   8   0    4.90    3.20
  -4   8   0    4.20    1.40
   3  -8   0   34.50   10.00
   3  -8   0   37.90    7.00
  -3   8   0   34.60    9.20
  -3   8   0   21.90    6.70
  -3   8   0   30.90    5.60
  -3   8   0   38.00    4.30
   2  -8   0   -3.00    3.20
   2  -8   0    2.80    6.70
  -2   8   0    7.90    7.20
   1  -8   0  141.79   13.20
  -1   8   0  160.68   12.20
  -1   8   0  172.18   12.20
  -1   8   0  156.68   14.10
  -1   8   0  166.88   16.20
   0   8   0   -5.30    5.50
   0   8   0   -3.50    3.40
   0   8   0   -0.60    2.40
   0   8   0    4.60    4.30
   0   8   0   -8.70    4.40
   0   8   0   -0.40    2.90
   0   8   0    2.80    4.30
   1   8   0   -0.70    3.30
   1   8   0    1.40    4.80
   1   8   0    4.60    3.90
   1   8   0    5.00    3.80
   1   8   0    2.10    3.10
   1   8   0   -0.10    2.40
   1   8   0    1.50    3.00
   1   8   0    7.00    5.90
   1   8   0   -3.00    4.00
  -2  -8   0  193.78   17.00
   2   8   0  249.28   14.10
   2   8   0  233.08   15.50
   2   8   0  239.88   16.10
   2   8   0  213.88   17.70
  -3  -8   0    9.60    5.60
  -3  -8   0    4.00    3.70
   3   8   0    5.00    3.90
   3   8   0    4.80    5.00
   3   8   0    7.90    8.00
   3   8   0    8.20    2.70
  -4  -8   0   11.10    6.80
   4   8   0   16.40    3.60
   4   8   0   11.60    2.10
   4   8   0   17.80    5.00
   4   8   0   12.90    7.00
   3  -9   0   -0.30    2.90
   3  -9   0   -0.70    4.10
  -3   9   0    2.60    4.50
  -3   9   0   -0.30    1.80
  -3   9   0    0.30    2.80
  -3   9   0    0.70    4.70
   2  -9   0    6.90    4.20
   2  -9   0    2.00    2.60
  -2   9   0    2.40    5.90
  -2   9   0    1.10    2.70
  -2   9   0    3.40    3.50
  -2   9   0   -1.80    5.40
  -1   9   0    6.00    4.20
  -1   9   0    4.50    3.50
  -1   9   0    2.50    3.40
  -1   9   0    1.60    5.80
   0   9   0   21.90    4.90
   0   9   0    7.10    7.60
   0   9   0    7.90    3.80
   0   9   0    8.10    5.40
   1   9   0   27.60    5.50
   1   9   0   18.70    5.50
   1   9   0   30.80    3.80
   1   9   0   19.70    6.50
   2   9   0    7.50    4.40
   2   9   0    3.30    2.30
   2   9   0    4.70    5.00
   2   9   0    1.20    3.50
   3   9   0   -0.40    6.50
   3   9   0    3.80    1.60
   3   9   0    5.80    3.00
   3   9   0   -0.30    4.70
   4   9   0   62.79    4.00
  -2  10   0   10.50    3.30
  -2  10   0    7.70    4.50
  -1  10   0   14.70    5.40
  -1  10   0   18.60    4.00
  -1  10   0   12.70    2.60
  -1  10   0   10.60    3.10
   0  10   0    6.70    3.00
   0  10   0    1.20    3.90
   0  10   0    0.70    3.70
   1  10   0  159.88   10.00
   1  10   0  146.19    9.90
   2  10   0   38.00    5.30
   2  10   0   39.20    4.90
   2  10  -1   11.80    3.10
   2  10  -1    5.40    2.60
   2  10  -1   12.60    3.50
   1  10  -1   41.90    4.50
   1  10  -1   37.10    4.50
   0  10  -1   74.59    7.30
  -1  10  -1   10.30    5.20
  -1  10  -1   22.50    3.10
  -1  10  -1   18.60    3.80
  -2  10  -1   12.50    2.20
  -2  10  -1   13.60    3.30
  -2  10  -1    9.50    4.50
   3   9  -1    9.90    3.30
   3   9  -1    6.10    3.40
   3   9  -1    4.00    4.00
  -3  -9   1   16.20    6.20
   2   9  -1   95.39    9.90
   2   9  -1  111.09    9.20
   2   9  -1  116.89   10.30
   1   9  -1    3.10    4.50
   1   9  -1    8.30    4.80
   1   9  -1    4.20    3.60
   0   9  -1   14.30    5.20
   0   9  -1   22.40    4.60
   0   9  -1   16.20    6.30
  -1   9  -1   -2.80    8.30
  -1   9  -1   -1.10    3.90
  -1   9  -1    3.10    3.40
  -1   9  -1    1.80    2.40
   1  -9   1    0.30    3.50
  -2   9  -1   -3.30    7.80
  -2   9  -1   -1.20    2.80
  -2   9  -1   -1.10    2.80
  -2   9  -1    2.30    3.70
   2  -9   1   -3.60    3.40
  -3   9  -1   12.90    2.30
  -3   9  -1    9.30    3.70
  -3   9  -1   12.70    5.00
  -3   9  -1   11.80    2.90
   3  -9   1   12.10    2.90
   4   8  -1   49.60    8.30
   4   8  -1   60.39    4.10
   4   8  -1   61.59    7.90
   4   8  -1   60.89    5.90
  -4  -8   1   43.20   11.40
  -4  -8   1   58.09    7.90
  -4  -8   1   33.70    8.40
   3   8  -1   42.20    6.00
   3   8  -1   33.60    5.60
   3   8  -1   39.30    4.00
   3   8  -1   28.00    8.60
  -3  -8   1   35.90    6.40
   2   8  -1   16.10    2.70
   2   8  -1   27.20    6.00
   2   8  -1    5.90    5.30
   2   8  -1   11.20   10.70
  -2  -8   1   30.70    7.90
   1   8  -1   37.70    6.90
   1   8  -1   47.40    9.30
   1   8  -1   51.59    6.50
   1   8  -1   47.90    7.30
   1   8  -1   50.99    7.30
   0   8  -1  120.19    9.70
   0   8  -1  127.59   10.70
   0   8  -1  110.59   12.40
   0   8  -1  110.19   13.50
   0   8  -1  117.19   11.60
  -1   8  -1    4.20    3.70
  -1   8  -1    0.10    4.40
  -1   8  -1    1.40    4.60
  -1   8  -1   12.20    9.30
  -2   8  -1   13.90    6.00
  -2   8  -1   21.00    3.70
  -2   8  -1   18.40    7.10
  -2   8  -1   19.60    9.80
   2  -8   1   17.80    4.60
   2  -8   1   16.70    6.30
  -3   8  -1    1.70    5.20
  -3   8  -1    5.00    5.00
  -3   8  -1    6.00    3.00
  -3   8  -1    8.00    5.40
   3  -8   1   10.80    5.00
   3  -8   1   20.90   14.00
  -4   8  -1   68.49    4.90
  -4   8  -1   72.09    6.60
   4  -8   1   60.59    7.00
   4  -8   1   51.59   14.30
   5   7  -1    2.80    3.80
   5   7  -1    5.40    2.30
   5   7  -1    1.80    1.20
  -5  -7   1    8.30    3.70
   4   7  -1   29.50    6.80
   4   7  -1   31.40    5.30
   4   7  -1   28.90    3.20
   4   7  -1   29.30    6.00
  -4  -7   1   30.10    7.20
   3   7  -1   35.80    8.70
   3   7  -1   38.60    4.00
   3   7  -1   30.40    7.40
   3   7  -1   44.50    6.80
   3   7  -1   32.80    6.10
  -3  -7   1   38.00    7.40
  -3  -7   1   36.30   10.40
   2   7  -1   85.39   11.50
   2   7  -1   70.99   10.00
   2   7  -1   70.69   10.60
   2   7  -1   78.39    8.40
   2   7  -1   85.19   10.60
   2   7  -1   84.29    6.10
  -2  -7   1   74.49   11.60
  -2  -7   1   71.89   11.20
   1   7  -1  155.18   15.70
   1   7  -1  185.48   16.30
   1   7  -1  159.58   15.40
   1   7  -1  162.58   16.40
   1   7  -1  203.88   11.50
  -1  -7   1  194.48   17.10
   0   7  -1    6.60    6.40
   0   7  -1   15.00    3.80
   0   7  -1    9.30    6.20
   0   7  -1    9.30    5.00
   0   7  -1   12.10    3.50
   0   7  -1    7.70    3.90
   0   7  -1   11.80    3.60
   0  -7   1    4.70    7.40
  -1   7  -1  157.38   17.70
  -1   7  -1  152.88   11.90
  -1   7  -1  151.18   10.70
  -1   7  -1  153.58   15.50
  -1   7  -1  169.38   13.70
   1  -7   1  133.09   12.30
   1  -7   1  152.18   21.30
  -2   7  -1    3.80    4.10
  -2   7  -1    6.40    2.90
  -2   7  -1    8.80    4.90
  -2   7  -1    0.80    9.00
   2  -7   1    2.20    3.40
   2  -7   1    0.20    6.70
  -3   7  -1   23.50    7.30
  -3   7  -1   34.80    7.00
  -3   7  -1   34.10    5.00
  -3   7  -1   19.50   11.00
   3  -7   1   38.50    4.40
   3  -7   1   31.50    7.30
   3  -7   1   27.10   10.70
  -4   7  -1   49.50    6.10
  -4   7  -1   43.90    7.00
  -4   7  -1   42.60    7.00
  -4   7  -1   39.50    6.30
   4  -7   1   51.39    4.60
   4  -7   1   40.10    6.20
   4  -7   1   55.59   11.50
   5   6  -1    4.40    4.50
   5   6  -1   -0.60    3.50
   5   6  -1   -1.40    1.70
   5   6  -1    2.50    4.50
  -5  -6   1   15.60    8.40
  -5  -6   1   10.50    3.00
  -5  -6   1    7.70    6.00
  -5  -6   1    5.00    8.90
   4   6  -1  137.39    9.40
   4   6  -1  136.69   12.20
   4   6  -1  135.19   13.60
   4   6  -1  133.99   12.60
  -4  -6   1  145.99   10.70
  -4  -6   1  139.89   15.10
  -4  -6   1  132.39   19.50
   3   6  -1  215.68   18.10
   3   6  -1  244.08   14.00
   3   6  -1  191.88   18.20
   3   6  -1  207.48   16.50
   3   6  -1  210.88   15.90
  -3  -6   1  160.38   19.70
  -3  -6   1  240.58   21.00
  -3  -6   1  249.68   23.40
   2   6  -1  435.26   29.30
   2   6  -1  391.46   26.40
   2   6  -1  411.26   28.30
   2   6  -1  354.56   25.30
   2   6  -1  401.96   23.20
   2   6  -1  396.76   25.60
  -2  -6   1  429.16   30.30
  -2  -6   1  417.06   32.30
  -2  -6   1  450.85   26.20
   1   6  -1  339.37   23.60
   1   6  -1  327.37   21.10
   1   6  -1  347.87   23.70
   1   6  -1  341.07   23.10
   1   6  -1  323.67   24.60
   1   6  -1  325.07   21.40
   1   6  -1  357.76   19.70
  -1  -6   1  361.86   27.10
  -1  -6   1  348.47   22.90
  -1  -6   1  378.56   25.90
   0   6  -1   89.39    7.30
   0   6  -1   87.79   11.00
   0   6  -1   84.29    7.30
   0   6  -1  117.69   18.50
   0   6  -1  106.99    8.10
   0   6  -1   74.49   10.30
   0   6  -1   95.29   11.10
   0  -6   1   84.89    8.90
   0  -6   1   95.99   11.20
   0  -6   1   74.29   12.80
  -1   6  -1    7.50    4.10
  -1   6  -1   11.10    2.80
  -1   6  -1    8.90    7.70
  -1   6  -1   14.10    5.60
  -1   6  -1    6.30    5.60
   1  -6   1    8.90    7.70
   1  -6   1   11.00    3.80
   1  -6   1   12.90    4.50
  -2   6  -1  248.28   20.30
  -2   6  -1  232.48   15.70
  -2   6  -1  213.08   16.00
  -2   6  -1  229.88   19.40
  -2   6  -1  213.38   15.50
  -2   6  -1  237.08   12.60
   2  -6   1  236.88   15.90
   2  -6   1  200.68   18.40
   2  -6   1  217.48   27.60
  -3   6  -1   81.29   11.50
  -3   6  -1   77.79   10.00
  -3   6  -1   85.29    7.90
  -3   6  -1   72.29   11.20
  -3   6  -1   82.79    6.40
   3  -6   1   89.69    7.70
   3  -6   1   78.49   10.70
   3  -6   1   52.29   12.00
  -4   6  -1   64.59   10.20
  -4   6  -1   76.69    7.30
  -4   6  -1   73.29    5.60
  -4   6  -1   56.19    9.10
  -4   6  -1   80.79    8.80
   4  -6   1   74.09    7.10
   4  -6   1   75.89   12.80
   4  -6   1   61.59    9.80
  -5   6  -1    8.60    2.50
  -5   6  -1    9.00    3.40
  -5   6  -1    7.30    1.20
   5  -6   1   11.60    5.60
   5  -6   1   12.90    2.60
   5  -6   1   16.10   12.50
   5   5  -1   93.99    7.00
   5   5  -1   64.09    9.10
   5   5  -1   89.69    5.40
   5   5  -1   65.49    8.90
   5   5  -1   94.59    8.60
  -5  -5   1   61.09   16.80
  -5  -5   1   77.89   11.10
  -5  -5   1   74.49   18.40
   4   5  -1  227.58   14.40
   4   5  -1  233.58   17.30
   4   5  -1  242.38   19.40
   4   5  -1  225.18   18.30
   4   5  -1  221.68   15.90
   4   5  -1  217.28   13.40
  -4  -5   1  224.68   19.50
  -4  -5   1  235.58   25.00
  -4  -5   1  239.88   15.80
   3   5  -1  728.63   43.40
   3   5  -1  674.53   42.80
   3   5  -1  709.33   39.60
   3   5  -1  731.63   45.00
   3   5  -1  755.52   40.70
   3   5  -1  764.82   45.30
   3   5  -1  699.83   42.00
  -3  -5   1  751.32   43.40
  -3  -5   1  759.62   53.09
  -3  -5   1  714.63   47.60
  -3  -5   1  812.62   43.20
   2   5  -1  205.78   14.90
   2   5  -1  205.68   13.00
   2   5  -1  217.28   15.60
   2   5  -1  209.38   16.70
   2   5  -1  217.98   17.30
  -2  -5   1  239.68   18.40
  -2  -5   1  213.88   14.20
  -2  -5   1  229.88   16.00
  -2  -5   1  213.08   19.80
   1   5  -1 1031.80   59.79
   1   5  -1 1032.70   59.59
  -1  -5   1 1094.19   58.39
  -1  -5   1 1036.70   62.39
  -1  -5   1 1102.09   61.99
   0   5  -1  147.69   13.50
   0   5  -1  121.09   11.80
   0   5  -1  125.49   12.00
   0  -5   1  152.18   13.10
   0  -5   1  149.49   12.10
   0  -5   1  163.88   11.20
  -1   5  -1   23.60    5.50
  -1   5  -1   11.20    4.70
   1  -5   1    6.60    7.30
   1  -5   1   15.40    4.80
   1  -5   1   11.20    3.80
   1  -5   1   12.50    4.00
  -2   5  -1  465.05   30.60
  -2   5  -1  444.46   27.80
  -2   5  -1  504.65   28.00
  -2   5  -1  462.45   25.90
  -2   5  -1  483.45   31.70
  -2   5  -1  477.15   32.30
  -2   5  -1  489.85   30.50
   2  -5   1  468.25   30.70
   2  -5   1  467.35   28.10
   2  -5   1  442.16   39.30
   2  -5   1  490.55   31.50
  -3   5  -1  132.89   12.80
  -3   5  -1  116.09    8.20
  -3   5  -1  105.29   12.50
   3  -5   1  112.89   11.60
   3  -5   1  115.79   15.90
   3  -5   1   92.49   19.40
   3  -5   1  108.29    9.20
  -4   5  -1  116.69   13.40
  -4   5  -1  127.99   12.60
  -4   5  -1  129.09   11.50
  -4   5  -1  135.59    9.60
   4  -5   1   85.39   20.60
   4  -5   1  157.98   10.80
   4  -5   1  130.29   15.10
  -5   5  -1    7.70    4.40
  -5   5  -1   11.60    2.30
   5  -5   1   10.70    6.70
   5  -5   1   19.50    3.50
   5  -5   1   18.00   10.20
   6   4  -1    0.40    0.90
   6   4  -1    0.70    2.30
  -6  -4   1    1.80    5.00
  -6  -4   1   -0.50    2.40
   5   4  -1  211.08   18.20
   5   4  -1  221.88   16.60
   5   4  -1  209.98   14.30
   5   4  -1  235.68   13.60
  -5  -4   1  255.87   15.80
  -5  -4   1  200.68   25.50
  -5  -4   1  207.48   24.60
  -5  -4   1  215.38   19.30
   4   4  -1    7.30    6.60
   4   4  -1   -0.90    4.50
   4   4  -1    9.00    5.90
   4   4  -1   10.30    5.50
   4   4  -1   -1.60    2.50
  -4  -4   1    9.00    4.20
  -4  -4   1    6.50   10.60
  -4  -4   1    0.50    5.00
  -4  -4   1   -4.90    4.00
  -4  -4   1    2.40    2.50
   3   4  -1  309.67   19.30
   3   4  -1  296.67   20.20
   3   4  -1  316.57   23.30
   3   4  -1  283.27   20.40
   3   4  -1  308.97   21.70
   3   4  -1  306.67   17.60
  -3  -4   1  344.87   29.80
  -3  -4   1  288.97   27.30
  -3  -4   1  307.07   19.30
  -3  -4   1  311.37   20.20
  -3  -4   1  324.27   21.10
   2   4  -1   34.20    6.70
   2   4  -1   39.60    6.00
  -2  -4   1   45.70    8.20
  -2  -4   1   48.20   10.30
  -2  -4   1   51.09    7.00
   1   4  -1 1459.05   76.99
   1   4  -1 1435.06   76.69
  -1  -4   1 1309.87   79.09
   0   4  -1 3077.19  161.38
   0   4  -1 2946.31  162.98
   0   4  -1 3008.00  161.38
   0  -4   1 3003.40  162.58
   0  -4   1 3024.90  161.28
   0  -4   1 3074.29  161.38
  -1   4  -1  324.17   21.50
  -1   4  -1  312.87   21.40
   1  -4   1  338.07   21.30
   1  -4   1  336.97   21.30
   1  -4   1  311.47   19.90
   1  -4   1  332.77   18.10
   1  -4   1  307.17   27.40
  -2   4  -1   33.30    6.80
  -2   4  -1   37.50    7.20
   2  -4   1   41.80    5.80
   2  -4   1   45.80    8.20
   2  -4   1   39.00    6.40
   2  -4   1   52.29   12.00
  -3   4  -1 1019.30   51.79
  -3   4  -1  990.60   53.99
  -3   4  -1  938.61   50.59
  -3   4  -1  979.90   61.89
  -3   4  -1  950.00   52.49
  -3   4  -1  994.00   54.59
   3  -4   1  901.81   51.89
   3  -4   1  908.11   56.39
   3  -4   1  829.52   65.19
   3  -4   1  794.32   58.59
   3  -4   1  894.01   52.89
  -4   4  -1    9.50    6.30
  -4   4  -1   10.60    5.30
  -4   4  -1   14.00    6.00
  -4   4  -1    9.50    3.90
  -4   4  -1   12.60    7.00
   4  -4   1    7.70    9.20
   4  -4   1    6.00    6.60
   4  -4   1   15.10    4.50
   4  -4   1    5.70    8.10
  -5   4  -1    6.90    3.40
  -5   4  -1    6.80    3.40
   5  -4   1    8.80    3.20
   5  -4   1   10.70   10.50
   5  -4   1   18.90   12.30
  -6   4  -1    5.20    2.30
  -6   4  -1    6.30    2.20
   6  -4   1    1.70    2.00
   6   3  -1    8.80    2.50
   6   3  -1    3.20    2.00
  -6  -3   1    8.50    5.30
  -6  -3   1   15.50    3.90
   5   3  -1   52.19    9.90
  -5  -3   1   60.79   12.80
  -5  -3   1   63.39   13.90
  -5  -3   1   51.19    8.80
  -5  -3   1   66.19    8.00
  -5  -3   1   42.30    8.90
   4   3  -1   28.40   14.30
   4   3  -1   22.90    5.50
   4   3  -1   31.50    4.20
   4   3  -1   29.00    5.40
   4   3  -1   18.00    4.50
   4   3  -1   33.60    6.20
  -4  -3   1   12.40   10.20
  -4  -3   1   38.30   11.10
  -4  -3   1   26.50    5.70
  -4  -3   1   31.30    5.40
  -4  -3   1   21.50    6.00
   3   3  -1   14.40    4.90
   3   3  -1   14.60    2.80
   3   3  -1   16.80    3.90
   3   3  -1    8.60    4.70
  -3  -3   1   18.80    4.10
  -3  -3   1   18.50    7.90
  -3  -3   1   10.90    5.80
  -3  -3   1   15.90    5.10
   2   3  -1  332.17   22.00
   2   3  -1  361.06   22.80
  -2  -3   1  405.06   25.10
  -2  -3   1  371.06   27.20
  -2  -3   1  364.86   22.20
   1   3  -1  623.34   33.20
   1   3  -1  602.54   33.50
  -1  -3   1  564.14   34.20
  -1  -3   1  547.55   35.60
   0   3  -1  399.66   26.60
   0   3  -1  510.95   25.90
   0   3  -1  526.25   26.00
   0  -3   1  441.86   26.60
   0  -3   1  385.46   25.40
  -1   3  -1 2944.81  153.28
  -1   3  -1 2680.63  153.68
   1  -3   1 2774.02  152.08
   1  -3   1 2963.00  153.58
   1  -3   1 2944.21  157.78
   1  -3   1 2933.31  153.28
  -2   3  -1   12.70    3.90
  -2   3  -1    2.60    5.50
   2  -3   1    2.80    6.10
   2  -3   1   14.10    3.80
   2  -3   1   -0.30    6.10
  -3   3  -1   80.79    8.90
  -3   3  -1   89.29    7.10
  -3   3  -1   83.79   11.50
  -3   3  -1   96.59    8.80
   3  -3   1  100.09   10.30
   3  -3   1  121.99   17.90
   3  -3   1   94.89    7.30
   3  -3   1  107.39    9.80
   3  -3   1   71.19    7.00
  -4   3  -1   75.39    6.50
  -4   3  -1   77.59   10.00
  -4   3  -1   80.39    6.80
  -4   3  -1   83.79   10.00
  -4   3  -1   58.89    9.50
  -4   3  -1   70.39    7.60
  -4   3  -1   77.79   12.90
   4  -3   1   85.69    8.10
   4  -3   1   75.09   13.60
   4  -3   1   75.79   10.10
   4  -3   1   60.39   17.20
  -5   3  -1   12.80    4.00
  -5   3  -1    9.70    2.90
   5  -3   1   11.00    2.20
   5  -3   1   12.60    4.50
   5  -3   1   14.00    7.40
   5  -3   1    8.60   10.00
  -6   3  -1   23.80    3.80
   6  -3   1   33.30    4.50
   6   2  -1   14.10    2.60
  -6  -2   1   21.70    4.40
  -6  -2   1   13.50    4.30
   5   2  -1  154.78   17.30
   5   2  -1  181.88   11.80
  -5  -2   1  180.08   14.90
  -5  -2   1  190.98   23.40
  -5  -2   1  142.89   14.30
  -5  -2   1  180.18   21.80
  -5  -2   1  190.68   17.10
  -5  -2   1  191.38   14.10
   4   2  -1  123.99   10.70
   4   2  -1  116.79    8.80
   4   2  -1  106.09   11.30
   4   2  -1  111.89   10.40
   4   2  -1  123.59   12.20
   4   2  -1  101.29    8.50
  -4  -2   1  125.29   17.20
  -4  -2   1  127.79   13.10
  -4  -2   1  113.49   17.00
  -4  -2   1  106.89    9.60
  -4  -2   1  117.19   10.60
   3   2  -1  331.77   22.20
   3   2  -1  350.56   22.10
  -3  -2   1  354.46   22.50
  -3  -2   1  296.87   24.50
  -3  -2   1  360.76   22.30
  -3  -2   1  413.26   29.50
   2   2  -1   50.29    5.90
  -2  -2   1   55.59   10.60
  -2  -2   1   42.30    8.50
  -2  -2   1   45.20    5.60
   1   2  -1 1018.30   52.39
   1   2  -1  992.10   52.69
  -1  -2   1  999.50   53.19
  -1  -2   1  861.41   54.59
   0   2  -1 1369.46   69.39
   0   2  -1 1238.28   69.19
   0   2  -1 1189.18   69.69
   0  -2   1 1372.96   71.49
   0  -2   1 1306.07   69.19
   0  -2   1 1294.97   69.99
  -1   2  -1 1663.43   97.69
  -1   2  -1 1839.92   96.69
  -1   2  -1 1932.51   97.09
  -1   2  -1 1692.53   97.09
   1  -2   1 1717.73   96.69
   1  -2   1 1900.51   97.49
   1  -2   1 1986.70  100.89
   1  -2   1 1782.42   96.99
  -2   2  -1 2084.29  113.19
  -2   2  -1 1980.20  111.29
  -2   2  -1 1925.71  109.09
   2  -2   1 2123.09  116.69
   2  -2   1 2117.29  110.69
   2  -2   1 1998.90  110.19
  -3   2  -1  804.52   55.29
  -3   2  -1  898.21   50.09
  -3   2  -1  901.71   48.40
  -3   2  -1  775.82   56.29
   3  -2   1  912.81   60.29
   3  -2   1 1001.80   53.29
   3  -2   1  857.61   51.89
   3  -2   1  921.61   49.80
  -4   2  -1    3.10    4.70
  -4   2  -1    4.20    5.20
  -4   2  -1    3.00    3.40
  -4   2  -1    0.20    4.60
  -4   2  -1    3.40    2.50
  -4   2  -1   -1.00    5.30
  -4   2  -1   -3.30    2.80
   4  -2   1   10.10    9.10
   4  -2   1    7.30    5.70
   4  -2   1   17.50    8.40
   4  -2   1    1.80    1.70
   4  -2   1    3.60    3.70
  -5   2  -1   30.90    6.20
  -5   2  -1   25.40    4.70
  -5   2  -1   29.00    5.10
  -5   2  -1   31.20    9.60
  -5   2  -1   34.80    5.60
   5  -2   1   33.80    5.50
   5  -2   1   27.50    7.80
   5  -2   1   16.90    9.90
   5  -2   1   29.80    3.80
  -6   2  -1   37.20    5.70
   6  -2   1   59.09    4.70
   6  -2   1   61.59    5.70
   6   1  -1   60.89    5.40
  -6  -1   1   65.79    7.30
  -6  -1   1   71.39    8.70
  -6  -1   1   63.79    6.00
   5   1  -1  283.17   18.70
   5   1  -1  240.88   16.20
   5   1  -1  259.47   16.00
  -5  -1   1  238.38   16.90
  -5  -1   1  286.77   21.60
  -5  -1   1  260.87   19.50
  -5  -1   1  259.97   20.30
  -5  -1   1  238.88   17.50
   4   1  -1  235.68   16.90
   4   1  -1  230.58   15.90
   4   1  -1  262.57   27.60
   4   1  -1  251.47   15.00
   4   1  -1  252.67   16.60
   4   1  -1  266.07   18.00
  -4  -1   1  241.08   15.50
  -4  -1   1  231.98   23.60
  -4  -1   1  253.37   23.20
  -4  -1   1  250.97   18.30
  -4  -1   1  245.48   17.40
  -4  -1   1  204.98   16.10
  -4  -1   1  272.47   22.30
   3   1  -1  286.87   18.60
   3   1  -1  299.17   26.30
   3   1  -1  285.47   20.10
  -3  -1   1  346.77   24.10
  -3  -1   1  294.87   19.30
  -3  -1   1  287.47   19.00
  -3  -1   1  263.37   24.10
   2   1  -1 1248.28   75.99
   2   1  -1 1320.37   72.39
   2   1  -1 1383.86   72.99
   2   1  -1 1310.37   71.69
  -2  -1   1 1399.46   73.59
  -2  -1   1 1260.67   76.39
  -2  -1   1 1335.37   74.09
  -2  -1   1 1358.36   72.09
   1   1  -1  563.04   31.50
   1   1  -1  582.84   30.60
   1   1  -1  607.94   34.50
   1   1  -1  539.85   31.30
  -1  -1   1  560.84   31.70
   0   1  -1   84.69    5.70
   0   1  -1   98.49    6.60
   0   1  -1   95.29    7.40
   0   1  -1   80.29    5.40
   0   1  -1   88.99    5.90
   0  -1   1   91.49    7.00
   0  -1   1   83.19    6.60
   0  -1   1   87.79    5.50
  -1   1  -1 9999.00  525.45
  -2   1  -1  171.38   14.50
  -2   1  -1  187.88   12.10
   2  -1   1  192.68   17.50
   2  -1   1  194.58   13.10
   2  -1   1  183.88   12.30
   2  -1   1  201.58   14.00
  -3   1  -1 3902.61  210.18
  -3   1  -1 3893.81  211.38
  -3   1  -1 4217.38  221.68
   3  -1   1 4013.60  211.28
   3  -1   1 4061.69  221.18
   3  -1   1 3855.21  212.98
   3  -1   1 3943.61  211.58
   3  -1   1 3964.60  213.58
  -4   1  -1  422.86   23.50
  -4   1  -1  338.57   32.70
  -4   1  -1  368.46   23.50
  -4   1  -1  360.96   22.50
  -4   1  -1  382.96   22.10
  -4   1  -1  413.86   25.20
  -4   1  -1  379.76   24.70
   4  -1   1  371.96   26.50
   4  -1   1  339.77   21.50
   4  -1   1  364.76   35.10
   4  -1   1  327.47   22.80
   4  -1   1  378.36   24.10
   4  -1   1  447.26   29.20
  -5   1  -1   14.60    4.60
  -5   1  -1   13.10    4.70
  -5   1  -1    9.40    3.50
  -5   1  -1   10.70    6.70
   5  -1   1    9.40    4.30
   5  -1   1   15.20    2.90
  -6   1  -1    5.20    2.60
  -6   1  -1    6.30    2.50
  -6   1  -1    5.90    2.30
   6  -1   1    4.80    2.20
   6  -1   1   12.80    4.20
   6   0  -1  142.39    9.20
  -6   0   1  142.09    9.90
  -6   0   1  131.39   10.10
  -6   0   1  139.99   10.90
   5   0  -1   43.60    5.20
   5   0  -1   59.89    8.10
   5   0  -1   31.00    5.20
  -5   0   1   49.20    6.30
  -5   0   1   42.20   13.40
  -5   0   1   35.10    6.30
   4   0  -1  638.74   39.40
   4   0  -1  586.34   34.40
   4   0  -1  605.84   47.10
   4   0  -1  656.83   35.80
   4   0  -1  611.84   36.00
  -4   0   1  643.34   37.60
  -4   0   1  606.14   34.90
  -4   0   1  622.44   36.60
  -4   0   1  607.64   39.90
  -4   0   1  620.14   45.30
  -4   0   1  587.24   35.80
  -4   0   1  619.14   40.90
   3   0  -1   39.50    8.60
   3   0  -1   71.29    9.20
   3   0  -1   42.50    6.00
   3   0  -1   24.80    8.70
   3   0  -1   53.79    5.20
  -3   0   1   43.60    9.50
  -3   0   1   50.19    7.30
  -3   0   1   47.30    6.60
  -3   0   1   65.49   12.00
   2   0  -1  142.69   11.30
   2   0  -1  127.39   10.50
   2   0  -1  136.09    8.90
   2   0  -1  148.59   16.00
  -2   0   1  153.28   12.20
  -2   0   1  137.69    9.80
  -2   0   1  111.99   12.60
   0   0  -1  109.19    7.00
   0   0  -1  118.29    7.00
   0   0   1  105.79    6.70
   0   0   1  119.99    7.10
  -1   0  -1 3921.91  230.08
   1   0   1 4793.42  231.88
  -2   0  -1 2390.96  136.39
  -2   0  -1 2886.01  138.39
  -2   0  -1 2472.95  140.09
  -2   0  -1 2277.47  135.69
  -2   0  -1 2780.62  137.79
   2   0   1 2351.86  139.99
   2   0   1 2567.74  136.59
   2   0   1 2571.24  136.59
   2   0   1 2757.12  137.39
  -3   0  -1  306.27   26.00
  -3   0  -1  336.57   24.30
  -3   0  -1  306.77   19.70
  -3   0  -1  319.87   19.80
   3   0   1  329.27   20.20
   3   0   1  285.97   25.20
   3   0   1  326.57   22.50
   3   0   1  342.07   21.90
   3   0   1  313.47   20.50
  -4   0  -1  836.02   46.70
  -4   0  -1  843.22   48.60
  -4   0  -1  890.71   48.10
  -4   0  -1  812.02   52.19
  -4   0  -1  865.31   48.30
  -4   0  -1  829.52   48.30
  -4   0  -1  860.11   47.40
   4   0   1  858.31   47.60
   4   0   1  828.72   46.40
   4   0   1  862.01   48.70
   4   0   1  846.32   51.19
   4   0   1  869.81   47.80
   4   0   1  804.32   58.49
  -5   0  -1   23.70    6.00
  -5   0  -1   19.50    4.00
  -5   0  -1   15.30    3.20
  -5   0  -1   12.60    4.30
   5   0   1   11.10    4.30
   5   0   1   16.20    3.30
  -6   0  -1    1.80    2.70
  -6   0  -1   -0.30    2.40
  -6   0  -1    0.90    2.50
   6   0   1    2.10    2.80
   6   0   1   -0.20    2.50
   6  -1  -1   63.89    6.10
  -6   1   1   88.29   10.30
  -6   1   1   56.89    5.30
  -6   1   1   80.89    8.50
  -6   1   1   53.29    5.00
   5  -1  -1   12.50    3.90
   5  -1  -1   10.30    3.20
  -5   1   1    1.60    6.30
  -5   1   1    7.90    4.80
  -5   1   1   11.70    3.80
  -5   1   1   13.50    3.80
   4  -1  -1  560.54   32.50
   4  -1  -1  515.45   30.00
   4  -1  -1  483.35   31.30
   4  -1  -1  571.84   36.30
   4  -1  -1  517.65   42.90
  -4   1   1  576.34   33.30
  -4   1   1  542.65   31.30
  -4   1   1  583.34   31.90
  -4   1   1  447.86   30.60
  -4   1   1  521.45   40.30
  -4   1   1  550.94   33.30
  -4   1   1  513.45   41.60
  -4   1   1  527.25   30.20
   3  -1  -1  843.92   49.20
   3  -1  -1  876.91   50.99
   3  -1  -1  856.21   56.89
   3  -1  -1  852.61   47.80
   3  -1  -1  764.82   45.50
  -3   1   1  916.51   54.19
  -3   1   1  840.82   49.90
  -3   1   1  860.11   48.20
  -3   1   1  838.12   47.20
  -3   1   1  840.12   50.29
   2  -1  -1   45.70    3.30
   2  -1  -1   43.90    9.60
   2  -1  -1   41.30    6.10
   2  -1  -1   46.40    7.80
  -2   1   1   42.50    8.20
  -2   1   1   43.00    5.30
  -1  -1  -1  798.92   48.10
  -1  -1  -1 1014.10   50.19
   1   1   1  915.71   49.30
   1   1   1  931.11   47.80
   1   1   1 1006.40   50.69
   1   1   1  779.82   48.10
  -2  -1  -1  214.68   14.80
  -2  -1  -1  169.08   15.50
  -2  -1  -1  170.08   12.10
   2   1   1  193.28   12.20
   2   1   1  210.78   15.90
   2   1   1  192.38   13.60
  -3  -1  -1   26.70    5.80
  -3  -1  -1   21.80    4.00
  -3  -1  -1   28.40    9.20
  -3  -1  -1   33.30    9.60
  -3  -1  -1   28.70    9.10
   3   1   1   25.60    4.50
   3   1   1   25.70    5.90
   3   1   1   16.40    6.90
  -4  -1  -1  207.88   16.20
  -4  -1  -1  198.38   19.10
  -4  -1  -1  192.68   14.20
  -4  -1  -1  212.68   21.60
  -4  -1  -1  194.98   13.70
   4   1   1  227.18   16.50
   4   1   1  227.68   16.00
   4   1   1  181.98   21.70
   4   1   1  202.58   13.30
   4   1   1  191.28   14.10
   4   1   1  201.68   12.60
  -5  -1  -1  208.58   15.20
  -5  -1  -1  225.18   17.90
  -5  -1  -1  212.88   21.80
  -5  -1  -1  202.88   13.90
  -5  -1  -1  213.88   15.40
  -5  -1  -1  206.18   16.70
  -5  -1  -1  209.18   15.10
   5   1   1  200.58   13.60
  -6  -1  -1    2.70    2.40
  -6  -1  -1   -0.40    2.30
   6   1   1    0.30    2.70
   6   1   1   -0.40    1.30
   6  -2  -1   75.89    5.80
   6  -2  -1   75.39    6.50
  -6   2   1   70.39    6.20
  -5   2   1    7.20    6.30
   4  -2  -1   -1.50    5.00
   4  -2  -1    1.80    3.50
   4  -2  -1   -2.50    2.40
   4  -2  -1   12.50    9.70
   4  -2  -1    9.10    7.70
  -4   2   1    0.50    4.30
  -4   2   1    4.30    6.10
  -4   2   1    1.80    3.50
  -4   2   1   -0.90    6.00
  -4   2   1   -0.90    5.00
  -4   2   1    1.10    2.60
   3  -2  -1 1313.07   81.99
   3  -2  -1 1343.07   74.19
   3  -2  -1 1312.77   71.79
   3  -2  -1 1311.67   74.79
  -3   2   1 1300.37   77.49
  -3   2   1 1286.37   79.19
  -3   2   1 1241.28   71.79
   2  -2  -1  443.66   26.60
   2  -2  -1  450.05   27.00
   2  -2  -1  484.15   33.80
  -2   2   1  415.86   29.30
  -2   2   1  420.06   25.50
  -2   2   1  403.66   23.90
  -2   2   1  394.96   28.30
   1  -2  -1    1.60    4.40
   1  -2  -1    0.20    2.00
  -1   2   1    0.80    2.40
  -1   2   1    2.90    1.60
  -1  -2  -1 1484.45   91.49
  -1  -2  -1 1665.73   88.09
  -1  -2  -1 1823.42   90.79
  -1  -2  -1 1745.23   89.29
   1   2   1 1684.03   88.09
   1   2   1 1468.95   91.69
   1   2   1 1643.74   89.59
   1   2   1 1847.22   91.49
  -2  -2  -1   30.80    8.20
  -2  -2  -1   27.30    3.60
  -2  -2  -1   49.90    7.90
   2   2   1   29.70    5.50
   2   2   1   34.80    4.20
   2   2   1   23.20    5.60
   2   2   1   29.70    3.20
  -3  -2  -1  225.98   18.80
  -3  -2  -1  194.48   20.60
  -3  -2  -1  214.28   14.90
  -3  -2  -1  189.08   13.30
   3   2   1  199.58   15.20
   3   2   1  206.18   12.90
   3   2   1  206.78   14.40
   3   2   1  215.08   19.20
  -4  -2  -1   71.99   13.80
  -4  -2  -1   67.69    7.00
  -4  -2  -1   77.69   10.60
  -4  -2  -1   64.49    7.40
  -4  -2  -1   58.49   12.10
  -4  -2  -1   71.89   15.90
   4   2   1   62.69    5.90
   4   2   1   69.99    6.40
   4   2   1   78.59    9.70
   4   2   1   68.29    7.10
   4   2   1   94.79   10.00
   4   2   1   51.69   12.00
   4   2   1   69.69    6.90
  -5  -2  -1  308.47   19.10
  -5  -2  -1  362.06   21.20
  -5  -2  -1  299.27   23.40
  -5  -2  -1  319.47   22.60
  -5  -2  -1  308.97   20.30
  -5  -2  -1  259.87   28.30
   5   2   1  325.17   18.30
   5   2   1  269.47   18.20
  -6  -2  -1   44.20    5.20
  -6  -2  -1   50.69    4.90
  -6  -2  -1   24.40    4.60
   6   2   1   41.40    4.00
   6  -3  -1    6.20    3.20
   6  -3  -1    6.70    1.40
  -6   3   1    5.00    2.30
   5  -3  -1   20.70    3.10
   5  -3  -1   15.30    7.50
   5  -3  -1   21.40   12.70
   5  -3  -1   27.00    5.30
  -5   3   1   15.00    6.50
  -5   3   1   17.90    4.70
   4  -3  -1   -0.10    2.70
   4  -3  -1    0.30    2.60
   4  -3  -1   -1.80    9.20
   4  -3  -1    1.40    6.10
   4  -3  -1   -3.20   10.00
  -4   3   1   -3.30    4.80
  -4   3   1    3.40    6.90
  -4   3   1    0.30    4.90
  -4   3   1    1.60    2.50
  -4   3   1   -1.90    1.90
  -4   3   1   -1.30    5.60
   3  -3  -1    4.90    3.00
   3  -3  -1   13.00    3.50
   3  -3  -1    1.50    5.60
   3  -3  -1    2.20    4.70
   3  -3  -1    2.40    6.40
  -3   3   1    6.70    2.80
  -3   3   1    6.00    4.50
  -3   3   1    9.70    2.80
  -3   3   1    3.60    3.90
   2  -3  -1  404.66   25.10
   2  -3  -1  382.56   24.00
  -2   3   1  374.06   23.30
  -2   3   1  342.57   26.80
   1  -3  -1   60.49    6.50
   1  -3  -1   50.99    9.30
  -1   3   1   50.79    5.60
  -1   3   1   54.29    5.70
  -1   3   1   66.79    7.80
   0  -3  -1  696.73   42.30
   0  -3  -1  861.11   44.90
   0   3   1  725.63   45.30
   0   3   1  852.61   43.20
   0   3   1  788.22   42.80
  -1  -3  -1 3601.74  196.88
  -1  -3  -1 3593.24  193.88
  -1  -3  -1 3719.63  195.68
  -1  -3  -1 3699.93  192.18
   1   3   1 3787.92  193.78
   1   3   1 3505.95  192.28
  -2  -3  -1  574.84   41.70
  -2  -3  -1  624.04   35.70
  -2  -3  -1  666.93   37.60
  -2  -3  -1  679.13   37.60
   2   3   1  657.23   37.60
   2   3   1  640.34   35.20
  -3  -3  -1  687.83   41.60
  -3  -3  -1  679.63   38.40
  -3  -3  -1  626.44   37.10
  -3  -3  -1  674.03   47.10
   3   3   1  649.43   39.80
   3   3   1  655.83   36.60
  -4  -3  -1  276.07   18.90
  -4  -3  -1  319.97   27.20
  -4  -3  -1  313.87   19.60
  -4  -3  -1  329.87   32.20
  -4  -3  -1  306.97   21.10
  -4  -3  -1  317.57   28.20
   4   3   1  317.07   21.80
   4   3   1  294.97   17.90
   4   3   1  293.57   21.60
   4   3   1  310.87   20.30
   4   3   1  292.27   19.40
  -5  -3  -1   30.50    5.70
  -5  -3  -1   13.70    7.70
  -5  -3  -1   22.10    8.70
  -5  -3  -1   26.50   12.80
  -5  -3  -1   31.80    5.40
   5   3   1   25.70    3.90
   5   3   1   19.60    7.80
  -6  -3  -1   28.90    9.50
  -6  -3  -1   11.80    4.80
  -6  -3  -1   29.70    4.20
   6   3   1   19.30    3.10
   6   3   1   24.90    3.10
   6  -4  -1   36.90    3.90
  -6   4   1   27.10    3.70
   5  -4  -1  155.78   11.30
   5  -4  -1  169.48   23.30
   5  -4  -1  125.49   19.00
  -5   4   1  146.89   10.70
  -5   4   1  112.59   12.10
   4  -4  -1   10.70    9.60
   4  -4  -1    7.80    5.20
   4  -4  -1   22.50   13.20
   4  -4  -1    0.90    4.30
  -4   4   1    7.70    6.30
  -4   4   1    5.90    4.60
  -4   4   1    5.50    3.80
  -4   4   1    4.00    4.40
  -4   4   1    1.80    5.60
  -4   4   1   14.20    8.10
   3  -4  -1    7.30    3.50
   3  -4  -1    7.30    3.30
   3  -4  -1    4.60    5.00
   3  -4  -1   -0.50    5.30
  -3   4   1    8.90    2.40
  -3   4   1    6.80    5.00
  -3   4   1    6.40    3.70
  -3   4   1    6.20    4.20
  -3   4   1    7.90    6.30
  -3   4   1   12.50    4.20
  -3   4   1   14.20    6.40
   2  -4  -1    4.90    3.20
   2  -4  -1    8.20    5.60
   2  -4  -1    6.30    6.20
  -2   4   1    4.50    4.20
  -2   4   1    6.50    3.50
   1  -4  -1  148.19   17.40
   1  -4  -1  123.29   10.60
  -1   4   1  131.99   12.90
  -1   4   1  126.69    9.90
  -1   4   1  112.79   11.80
   0  -4  -1   62.69    5.40
   0  -4  -1   68.79    9.10
   0   4   1   61.39    6.60
   0   4   1   64.69    7.70
   0   4   1   45.80    8.70
  -1  -4  -1  964.90   53.39
  -1  -4  -1  897.21   48.50
  -1  -4  -1  856.61   53.69
  -1  -4  -1  867.41   48.10
   1   4   1  954.30   49.20
   1   4   1  907.51   50.09
   1   4   1  802.32   53.09
  -2  -4  -1 1092.89   60.79
  -2  -4  -1 1179.28   69.39
  -2  -4  -1 1054.79   60.69
  -2  -4  -1 1150.68   62.59
   2   4   1 1135.89   63.29
   2   4   1 1111.39   60.79
  -3  -4  -1  529.45   30.10
  -3  -4  -1  522.25   39.10
  -3  -4  -1  518.25   33.50
   3   4   1  482.95   27.00
   3   4   1  510.85   31.60
   3   4   1  472.55   29.00
   3   4   1  409.96   34.70
  -4  -4  -1   19.80   10.20
  -4  -4  -1   25.70   11.50
  -4  -4  -1   22.10    6.60
  -4  -4  -1    5.50    6.30
   4   4   1   11.00    4.90
   4   4   1   12.90    5.40
   4   4   1   20.20    6.40
   4   4   1   14.10    4.70
   4   4   1    8.50    2.80
  -5  -4  -1   17.00   12.50
  -5  -4  -1   23.00    8.30
  -5  -4  -1   29.60    5.50
   5   4   1   28.70    3.70
   5   4   1   34.00    6.40
   5   4   1   25.70    4.40
   5   4   1   19.80    4.10
  -6  -4  -1   -3.40    3.20
  -6  -4  -1    2.20    6.00
  -6  -4  -1    0.80    2.20
   6   4   1    1.70    2.70
   6   4   1   -0.90    1.50
   5  -5  -1   49.99   11.50
   5  -5  -1   34.60    6.90
  -5   5   1   29.30    6.30
  -5   5   1   22.90    3.60
   4  -5  -1  478.45   28.20
   4  -5  -1  462.95   30.60
  -4   5   1  482.65   28.70
  -4   5   1  452.15   26.10
  -4   5   1  441.76   30.10
  -4   5   1  410.36   28.90
  -4   5   1  484.45   36.10
   3  -5  -1   34.20   10.80
   3  -5  -1   37.80   11.70
   3  -5  -1   51.89    5.90
   3  -5  -1   44.60    8.10
  -3   5   1   53.79    7.20
  -3   5   1   55.69    8.10
  -3   5   1   40.10    6.90
  -3   5   1   51.69   10.80
  -3   5   1   46.70    4.60
  -3   5   1   40.40    9.00
  -3   5   1   45.10    6.50
   2  -5  -1   -0.60    4.90
   2  -5  -1   -1.70    2.80
   2  -5  -1    3.20    4.70
   2  -5  -1    1.60    2.30
  -2   5   1    0.10    6.10
  -2   5   1    0.00    3.10
  -2   5   1    0.70    2.80
  -2   5   1   -4.20    9.00
  -2   5   1    0.60    1.40
   1  -5  -1    7.70    7.30
   1  -5  -1   10.10    3.80
   1  -5  -1   17.60    4.60
  -1   5   1   12.60    5.60
   0  -5  -1   50.29    5.70
   0  -5  -1   54.09    9.70
   0  -5  -1   39.80    5.50
   0   5   1   52.79    6.70
   0   5   1   37.60    7.50
   0   5   1   44.10    6.80
  -1  -5  -1  364.86   21.20
  -1  -5  -1  358.06   23.70
  -1  -5  -1  347.17   26.00
  -1  -5  -1  352.86   20.50
   1   5   1  320.17   26.30
   1   5   1  349.17   22.50
   1   5   1  375.96   22.10
  -2  -5  -1  134.29   17.40
  -2  -5  -1  161.68   12.60
  -2  -5  -1  126.19    8.80
   2   5   1  132.19   10.10
   2   5   1  137.29    9.40
   2   5   1  142.19   10.10
   2   5   1  153.28   14.20
   2   5   1  138.49   12.40
  -3  -5  -1 1567.04   89.89
  -3  -5  -1 1603.24   98.79
  -3  -5  -1 1566.24   86.19
   3   5   1 1582.14   84.89
   3   5   1 1518.45   85.29
   3   5   1 1504.35   88.19
   3   5   1 1560.24   85.29
   3   5   1 1550.84   82.99
   3   5   1 1701.03   88.69
   3   5   1 1542.95   84.19
  -4  -5  -1  260.47   23.90
  -4  -5  -1  234.48   18.20
  -4  -5  -1  255.77   25.60
  -4  -5  -1  228.78   16.00
   4   5   1  249.28   15.40
   4   5   1  229.18   16.00
   4   5   1  204.28   16.50
   4   5   1  225.78   15.10
   4   5   1  230.28   13.70
   4   5   1  272.77   18.90
   4   5   1  234.68   19.10
  -5  -5  -1   11.30    8.30
  -5  -5  -1    6.70   10.40
  -5  -5  -1   16.50    6.00
   5   5   1   18.90    2.50
   5   5   1   10.50    4.90
   5   5   1   19.20    3.00
   5   5   1   13.20    4.10
   5   5   1   21.90    4.10
  -6  -5  -1   11.60    5.70
  -6  -5  -1   11.20    3.40
  -6  -5  -1   12.10    3.30
   6   5   1    8.40    1.90
   5  -6  -1    0.00    3.70
   5  -6  -1    1.60    2.10
   5  -6  -1    1.60    5.30
  -5   6   1    1.60    1.10
   4  -6  -1  406.16   22.80
   4  -6  -1  364.76   25.70
   4  -6  -1  310.67   28.00
  -4   6   1  358.06   22.50
  -4   6   1  347.87   20.20
  -4   6   1  348.57   24.70
  -4   6   1  350.56   24.40
  -4   6   1  358.56   22.00
   3  -6  -1   18.80   11.40
   3  -6  -1   39.10   12.00
   3  -6  -1   34.70    7.70
   3  -6  -1   33.90    5.60
  -3   6   1   31.20    4.10
  -3   6   1   24.90    4.90
  -3   6   1   41.80    5.30
  -3   6   1   33.50    7.20
  -3   6   1   38.90    8.40
  -3   6   1   33.10    9.40
  -3   6   1   27.30    7.10
   2  -6  -1  146.69   21.50
   2  -6  -1  155.88   12.50
   2  -6  -1  132.89   15.20
   2  -6  -1  126.39   14.30
  -2   6   1  164.08   11.70
  -2   6   1  161.58   17.00
  -2   6   1  156.78   14.70
  -2   6   1  159.18   11.40
  -2   6   1  157.48   15.30
  -2   6   1  161.48    9.20
  -2   6   1  161.58   11.90
   1  -6  -1  267.67   19.30
   1  -6  -1  236.28   24.30
   1  -6  -1  235.18   17.50
  -1   6   1  279.67   20.00
  -1   6   1  280.07   18.00
  -1   6   1  261.97   16.20
  -1   6   1  304.37   25.50
  -1   6   1  247.68   16.30
  -1   6   1  251.17   16.00
   0  -6  -1   40.50    5.40
   0  -6  -1   42.50    9.20
   0  -6  -1   36.80    7.00
   0  -6  -1   39.40    9.50
   0   6   1   35.90    7.00
   0   6   1   37.60    5.30
   0   6   1   32.00    8.80
   0   6   1   57.29    8.60
   0   6   1   38.50    5.70
   0   6   1   44.80    6.20
  -1  -6  -1  635.44   40.70
   1   6   1  562.54   42.80
   1   6   1  566.74   34.70
   1   6   1  538.85   32.50
   1   6   1  561.64   32.80
   1   6   1  571.34   35.10
   1   6   1  573.24   31.60
  -2  -6  -1  932.11   62.69
  -2  -6  -1  965.90   53.79
   2   6   1 1006.20   52.79
   2   6   1  991.50   54.69
   2   6   1  880.71   50.99
   2   6   1  839.42   51.89
   2   6   1  950.30   55.19
   2   6   1  967.40   51.89
  -3  -6  -1  114.89   17.50
  -3  -6  -1   75.59    9.00
  -3  -6  -1   58.79   12.40
   3   6   1   72.79    7.40
   3   6   1   63.69   10.70
   3   6   1   66.49   10.60
   3   6   1   79.89    8.50
  -4  -6  -1  632.74   45.00
  -4  -6  -1  592.44   45.60
  -4  -6  -1  638.74   39.30
   4   6   1  658.03   38.00
   4   6   1  643.74   37.70
   4   6   1  642.04   41.10
   4   6   1  638.04   41.80
   4   6   1  669.33   38.00
   4   6   1  728.73   36.80
  -5  -6  -1   91.09   12.70
  -5  -6  -1   89.59   10.00
  -5  -6  -1   94.89   13.50
  -5  -6  -1   88.99   12.00
  -5  -6  -1   84.29    7.50
   5   6   1   95.29   11.20
   5   6   1   87.49    6.60
   5   6   1   80.39    9.20
   4  -7  -1   91.99   12.20
   4  -7  -1   99.29    7.40
   4  -7  -1   55.89   13.70
  -4   7   1   75.09   10.40
  -4   7   1   87.69    6.90
  -4   7   1   84.49   10.60
  -4   7   1   84.89    8.30
   3  -7  -1   87.79    7.60
   3  -7  -1   87.99   12.00
   3  -7  -1   88.39   15.30
  -3   7   1  102.19   10.10
  -3   7   1   84.79   10.90
  -3   7   1   81.39    9.40
  -3   7   1   80.89   10.20
   2  -7  -1   35.60   12.80
   2  -7  -1   32.30   10.10
   2  -7  -1   38.20    6.60
  -2   7   1   49.70    9.70
  -2   7   1   41.40    6.20
  -2   7   1   39.40    9.10
  -2   7   1   39.20    7.30
  -2   7   1   51.99    6.20
  -2   7   1   47.00    9.00
   1  -7  -1   36.20   10.60
   1  -7  -1   28.70    9.90
   1  -7  -1   42.20    6.40
  -1   7   1   49.60    8.20
  -1   7   1   47.00    6.80
  -1   7   1   49.40    5.90
  -1   7   1   52.99   10.50
  -1   7   1   44.00    4.90
  -1   7   1   67.39   12.00
   0  -7  -1  138.89   17.40
   0  -7  -1  159.28   18.50
   0   7   1  140.19   10.50
   0   7   1  151.88   17.80
   0   7   1  148.99   10.80
   0   7   1  172.68   14.30
   0   7   1  167.58   15.70
   0   7   1  163.18   15.20
   0   7   1  172.88   11.60
   0   7   1  180.08   13.00
   0   7   1  160.48   13.40
   0   7   1  153.78   12.30
  -1  -7  -1    9.90    3.90
  -1  -7  -1   10.10    5.40
   1   7   1   25.00    5.60
   1   7   1   10.30    8.10
   1   7   1   12.70    3.90
   1   7   1   16.50    3.80
   1   7   1   28.50    7.10
   1   7   1   12.40    2.70
   1   7   1   22.40    4.50
   1   7   1   15.40    5.00
  -2  -7  -1  245.48   20.00
  -2  -7  -1  312.37   27.40
  -2  -7  -1  269.67   21.90
   2   7   1  287.57   22.00
   2   7   1  270.47   20.80
   2   7   1  283.47   18.60
   2   7   1  303.47   17.00
   2   7   1  262.57   17.90
  -3  -7  -1  323.47   22.30
  -3  -7  -1  317.67   25.60
   3   7   1  340.87   22.50
   3   7   1  376.96   22.60
   3   7   1  364.46   26.30
   3   7   1  341.17   26.00
   3   7   1  336.77   20.90
   3   7   1  352.56   20.30
  -4  -7  -1    9.00    6.80
  -4  -7  -1    7.50    7.40
  -4  -7  -1    7.40    8.10
   4   7   1   15.00    7.90
   4   7   1   20.20    4.90
   4   7   1   17.50    4.90
   4   7   1   15.10    3.40
  -5  -7  -1   64.99    7.90
  -5  -7  -1   54.99   14.50
  -5  -7  -1   79.49    5.60
  -5  -7  -1   65.49   11.20
  -5  -7  -1   66.39   10.20
  -5  -7  -1   78.19    5.50
   5   7   1   59.79    7.50
   5   7   1   74.89    6.60
   4  -8  -1   47.40    6.70
   4  -8  -1   29.40   10.50
  -4   8   1   56.09    3.90
  -4   8   1   58.79    7.10
   3  -8  -1   18.60    8.10
   3  -8  -1   18.50    5.80
  -3   8   1   15.10    8.30
  -3   8   1   19.80    3.20
  -3   8   1   19.60    6.80
  -3   8   1   18.20    5.00
   2  -8  -1  100.49   13.30
   2  -8  -1  118.29   11.10
  -2   8   1  124.79   13.80
  -2   8   1  138.29    9.40
  -2   8   1  113.89   11.60
  -2   8   1  105.59   11.40
   1  -8  -1   10.40    4.90
  -1   8   1   10.30    4.90
  -1   8   1   24.80    3.80
  -1   8   1   13.60    6.70
  -1   8   1   17.30    6.50
  -1   8   1   11.80    9.10
   0   8   1  175.08   12.20
   0   8   1  172.98   14.10
   0   8   1  169.18   12.50
   0   8   1  149.99   15.10
   0   8   1  172.28   11.80
   0   8   1  173.78   20.80
   0   8   1  181.58   17.00
   0   8   1  161.48   14.20
   1   8   1  189.78   14.30
   1   8   1  159.78   14.00
   1   8   1  186.38   12.80
   1   8   1  166.18   15.00
   1   8   1  189.58   12.80
   1   8   1  202.08   12.30
   1   8   1  159.68   12.80
   1   8   1  183.38   15.80
  -2  -8  -1    5.90    5.00
   2   8   1    7.20    2.80
   2   8   1   -5.50    4.00
   2   8   1    5.70    4.10
   2   8   1    3.50    3.00
   2   8   1   12.40    6.90
   2   8   1    7.40    5.40
  -3  -8  -1    4.00    3.90
  -3  -8  -1   10.60    6.60
  -3  -8  -1    8.80    6.10
   3   8   1    6.90    4.20
   3   8   1    8.00    4.20
   3   8   1    7.70    2.30
   3   8   1   -2.30    8.20
  -4  -8  -1    1.90    2.30
  -4  -8  -1    3.30    6.40
  -4  -8  -1    4.00    4.30
   4   8   1   -2.20    4.50
   4   8   1    1.80    1.70
   4   8   1    0.10    5.20
   4   8   1    6.70    3.20
   3  -9  -1    2.20    9.30
   3  -9  -1    7.50    4.00
  -3   9   1   10.00    5.20
  -3   9   1   10.00    3.70
  -3   9   1    6.10    3.70
   2  -9  -1   46.80    6.50
   2  -9  -1   27.00    6.30
  -2   9   1   54.89    7.20
  -2   9   1   42.10    8.30
  -2   9   1   35.40    5.80
  -2   9   1   42.20    4.40
   1  -9  -1   26.80    5.50
  -1   9   1   45.30    4.80
  -1   9   1   44.20    4.50
  -1   9   1   35.80   10.30
  -1   9   1   36.80    7.50
  -1   9   1   45.30    7.00
   0   9   1   49.20    8.40
   0   9   1   39.70    5.90
   0   9   1   46.80    6.00
   0   9   1   41.10    6.10
   0   9   1   44.50    5.10
   1   9   1   49.10    6.80
   1   9   1   32.30    6.20
   1   9   1   41.90    8.30
   1   9   1   53.59    4.70
   1   9   1   49.60    6.20
   1   9   1   48.00    5.80
   2   9   1   15.80    4.00
   2   9   1   24.70    4.80
   2   9   1   18.20    8.20
   2   9   1   22.30    3.20
  -3  -9  -1    3.80    2.30
   3   9   1    9.70    4.20
   3   9   1    9.30    2.70
   3   9   1    6.00    5.30
   3   9   1   11.20    2.20
   4   9   1    5.40    3.50
   4   9   1    1.80    1.70
   4   9   1    6.30    3.30
  -2  10   1    8.80    4.70
  -2  10   1    6.20    3.30
  -2  10   1    5.60    4.40
  -1  10   1    7.60    6.20
  -1  10   1    5.90    2.90
   0  10   1   30.30    4.40
   0  10   1   23.50    9.70
   1  10   1   68.29    6.70
   1  10   1   54.89    4.60
   1  10   1   55.29    6.40
   2  10   1   -0.60    3.90
   2  10   1    0.80    1.90
   2  10   1    0.90    3.10
   3  10   1   14.80    1.90
   3  10   1   15.50    5.20
   3  10   1   25.70    3.80
   2  10  -2   13.00    4.20
   2  10  -2   26.30    3.40
   1  10  -2  174.18   10.70
   1  10  -2  159.28   10.50
   0  10  -2   -1.60    4.70
   0  10  -2    1.00    2.10
  -1  10  -2   23.70    5.70
  -1  10  -2   32.80    3.40
  -1  10  -2   32.80    3.60
   3   9  -2   37.70    4.60
   3   9  -2   24.00    4.10
   3   9  -2   23.00    4.40
   2   9  -2   52.99    7.60
   2   9  -2   42.30    6.30
   1   9  -2  120.69   11.50
   0   9  -2   96.69    9.50
   0   9  -2   78.29    9.70
  -1   9  -2    5.90    2.90
  -1   9  -2    8.50    5.80
  -1   9  -2    5.20    5.30
   1  -9   2   -0.90    3.70
  -2   9  -2   15.00    5.90
  -2   9  -2   22.50    6.10
  -2   9  -2   19.20    5.00
   2  -9   2   10.00    3.00
   2  -9   2    2.20    6.00
  -3   9  -2   10.10    4.20
  -3   9  -2   23.10    4.90
   3  -9   2   18.10    3.10
   4   8  -2   17.70    3.20
   4   8  -2    3.30    4.00
   4   8  -2    9.50    3.00
  -4  -8   2   10.00    4.50
   3   8  -2   20.10    4.60
   3   8  -2   19.80    7.70
   3   8  -2   17.60    4.40
  -3  -8   2   25.70    8.20
  -3  -8   2   29.60    6.00
   2   8  -2   85.29    9.20
   2   8  -2   91.69    8.90
   2   8  -2   92.39   11.40
  -2  -8   2   96.49    9.60
  -2  -8   2   83.09   12.30
   1   8  -2   -2.10    5.10
   1   8  -2   12.70    7.00
   1   8  -2    2.80    3.90
   1   8  -2    1.40    5.40
  -1  -8   2   -2.50    4.70
   0   8  -2  222.08   14.90
   0   8  -2  193.48   18.50
   0   8  -2  219.08   14.80
   0   8  -2  194.18   16.80
   0  -8   2  182.58   15.70
  -1   8  -2    3.40    9.10
  -1   8  -2    1.10    6.10
  -1   8  -2    2.80    3.70
   1  -8   2    4.60    5.00
  -2   8  -2    4.40    4.10
  -2   8  -2   -3.10    3.90
  -2   8  -2    8.70    6.90
  -2   8  -2    3.70    2.50
   2  -8   2   -0.20    3.50
   2  -8   2   -1.40    5.10
  -3   8  -2  119.49    8.00
  -3   8  -2   90.19   12.20
  -3   8  -2  112.09    9.50
  -3   8  -2   87.79   10.30
   3  -8   2  101.79   10.30
   3  -8   2  114.19   13.30
  -4   8  -2    0.70    1.40
  -4   8  -2    2.30    3.70
  -4   8  -2    1.70    2.70
   4  -8   2   -0.10    2.40
   4   7  -2   83.89    7.60
   4   7  -2   45.60    8.10
   4   7  -2   69.49    4.90
   4   7  -2   77.99    8.80
  -4  -7   2   52.69   10.80
  -4  -7   2   57.99    8.80
   3   7  -2   10.30    2.50
   3   7  -2   16.20    5.80
   3   7  -2    9.60    8.20
   3   7  -2    7.70    5.50
   3   7  -2   11.40    5.60
  -3  -7   2   18.60    5.10
  -3  -7   2   14.10    8.50
   2   7  -2   22.90    7.20
   2   7  -2   33.40    9.40
   2   7  -2   34.50    7.00
   2   7  -2   25.50    7.20
   2   7  -2   41.70    3.50
   2   7  -2   46.60    6.60
  -2  -7   2   30.40    9.10
  -2  -7   2   36.10    7.00
  -2  -7   2   33.10    5.60
   1   7  -2   92.39    9.80
   1   7  -2   96.19   10.70
   1   7  -2   99.99   10.30
   1   7  -2  101.29    9.10
  -1  -7   2   78.29   16.40
  -1  -7   2   86.59   10.90
  -1  -7   2   83.79   12.10
   0   7  -2   52.19    6.80
   0   7  -2   55.39    9.60
   0   7  -2   40.60    8.40
   0   7  -2   47.10    5.90
   0  -7   2   49.30    6.90
   0  -7   2   58.49   13.90
  -1   7  -2   56.09   11.50
  -1   7  -2   53.29    9.70
  -1   7  -2   39.60    6.40
  -1   7  -2   80.99   10.90
   1  -7   2   47.10    7.70
   1  -7   2   35.20   13.80
  -2   7  -2   45.80    6.50
  -2   7  -2   32.60    7.90
  -2   7  -2   49.20    6.90
  -2   7  -2   47.80   11.10
   2  -7   2   42.30    9.20
   2  -7   2   45.10    6.80
  -3   7  -2   20.20    4.50
  -3   7  -2   23.60    9.30
  -3   7  -2   24.90    6.70
  -3   7  -2   25.40    5.40
   3  -7   2   22.50    5.30
   3  -7   2   17.30    8.90
  -4   7  -2   80.49    7.90
  -4   7  -2   84.39    6.60
  -4   7  -2   57.39    8.10
  -4   7  -2   58.69    9.00
   4  -7   2   65.09   11.00
   4  -7   2   78.09    6.10
   4  -7   2   91.49   10.50
   5   6  -2   18.40    4.10
   5   6  -2   32.40    4.80
   5   6  -2   23.90    6.60
   5   6  -2   25.60    2.60
  -5  -6   2   30.60   15.40
  -5  -6   2   17.10   11.40
  -5  -6   2   32.20   10.80
   4   6  -2  176.68   15.30
   4   6  -2  148.09   15.40
   4   6  -2  181.48   10.90
   4   6  -2  169.58   13.00
  -4  -6   2  168.68   15.20
  -4  -6   2  190.58   12.60
  -4  -6   2  129.29   20.70
   3   6  -2   18.20    3.00
   3   6  -2   19.30    6.60
   3   6  -2   24.20   10.00
   3   6  -2   15.10    5.50
   3   6  -2   28.90    5.10
   3   6  -2   19.50    6.30
  -3  -6   2   28.80   11.60
  -3  -6   2   34.00    7.60
  -3  -6   2   28.60    6.70
   2   6  -2  804.82   48.40
   2   6  -2  767.02   47.20
   2   6  -2  764.72   44.70
   2   6  -2  803.82   42.80
  -2  -6   2  808.22   50.99
  -2  -6   2  745.93   49.30
  -2  -6   2  763.82   45.20
  -2  -6   2  821.22   47.30
   1   6  -2  114.29   12.60
   1   6  -2  118.99   12.50
   1   6  -2  117.39   10.20
   1   6  -2   98.29   11.00
   1   6  -2  107.69   10.90
   1   6  -2  115.19    9.90
  -1  -6   2  121.09   13.80
  -1  -6   2  105.99   11.40
   0   6  -2   45.30    5.80
   0   6  -2   38.10    5.00
   0   6  -2   43.60    8.50
   0   6  -2   53.99    8.00
   0  -6   2   46.40    7.60
   0  -6   2   50.69   13.80
   0  -6   2   51.79   10.00
   0  -6   2   44.60    6.10
  -1   6  -2   28.20    4.90
  -1   6  -2   17.80    5.90
  -1   6  -2   21.00    4.20
  -1   6  -2   26.90    7.60
  -1   6  -2   19.80    6.00
   1  -6   2   30.10    5.90
   1  -6   2   24.40    6.50
   1  -6   2   23.10    9.30
   1  -6   2   24.80    5.80
  -2   6  -2   61.79   10.30
  -2   6  -2   57.39    7.70
  -2   6  -2   51.79   10.00
  -2   6  -2   59.49    6.30
  -2   6  -2   60.59    8.90
   2  -6   2   52.29   15.30
   2  -6   2   48.40   10.60
   2  -6   2   50.09    7.70
  -3   6  -2   79.39   11.00
  -3   6  -2   96.59   11.60
  -3   6  -2   98.79   11.90
  -3   6  -2   86.49    6.10
  -3   6  -2   84.09    9.30
   3  -6   2   97.99   11.80
   3  -6   2   87.79   14.40
   3  -6   2   84.79    7.20
  -4   6  -2   24.10    6.20
  -4   6  -2   31.60    3.40
  -4   6  -2   27.60    6.00
  -4   6  -2   25.50    6.80
  -4   6  -2   32.90    5.50
   4  -6   2   26.30   10.30
   4  -6   2   34.30    6.10
  -5   6  -2    2.20    2.00
  -5   6  -2    1.90    2.40
   5  -6   2   -3.50    4.40
   5  -6   2    4.40    1.90
   5   5  -2   50.19    7.60
   5   5  -2   42.60    4.20
   5   5  -2   40.70    4.90
   5   5  -2   47.60    3.50
   5   5  -2   40.40    6.20
  -5  -5   2   48.50    9.30
  -5  -5   2   45.30   14.00
  -5  -5   2   32.80   13.60
  -5  -5   2   49.70    7.60
   4   5  -2  346.87   25.10
   4   5  -2  417.86   22.20
   4   5  -2  346.57   27.40
   4   5  -2  392.86   29.30
   4   5  -2  327.67   24.20
   4   5  -2  385.66   21.00
  -4  -5   2  433.26   24.70
  -4  -5   2  332.67   31.10
  -4  -5   2  355.36   24.70
  -4  -5   2  375.26   27.70
   3   5  -2  156.98   13.00
   3   5  -2  125.89   13.10
   3   5  -2  120.09   14.10
   3   5  -2  142.89   11.90
   3   5  -2  151.68   14.50
   3   5  -2  127.89   10.00
  -3  -5   2  150.58   11.00
  -3  -5   2  147.09   12.90
  -3  -5   2  139.49   19.40
  -3  -5   2  148.49   15.70
  -3  -5   2  147.89   12.90
  -3  -5   2  143.09   17.20
   2   5  -2  114.29   11.90
   2   5  -2   90.29    9.20
   2   5  -2  109.79   11.00
   2   5  -2   98.19   10.40
   2   5  -2  114.49    6.60
   2   5  -2  104.79    7.30
   2   5  -2  108.39    9.60
  -2  -5   2  127.59   14.00
  -2  -5   2  102.89   12.40
  -2  -5   2   96.89   11.60
  -2  -5   2  122.79   10.20
  -2  -5   2  112.99   11.90
   1   5  -2  542.05   32.70
   1   5  -2  531.45   34.30
   1   5  -2  571.64   32.90
  -1  -5   2  619.94   36.00
  -1  -5   2  637.94   38.20
  -1  -5   2  557.24   34.20
   0   5  -2  631.04   39.30
   0  -5   2  705.73   40.00
   0  -5   2  588.04   36.70
   0  -5   2  725.53   42.80
  -1   5  -2    5.60    2.70
  -1   5  -2    6.20    6.90
  -1   5  -2    4.80    3.10
   1  -5   2    0.80    4.50
   1  -5   2    7.50    4.30
   1  -5   2    5.40    4.40
   1  -5   2    3.40    2.90
  -2   5  -2   21.50    4.60
  -2   5  -2   12.10    2.20
  -2   5  -2   11.10    3.60
  -2   5  -2   15.40    6.00
  -2   5  -2   16.30    6.30
  -2   5  -2   13.10    6.80
   2  -5   2    8.20    4.70
   2  -5   2   18.50    7.70
   2  -5   2   17.90    9.80
  -3   5  -2  568.54   35.20
  -3   5  -2  545.45   33.10
  -3   5  -2  518.35   31.30
  -3   5  -2  528.55   29.30
   3  -5   2  521.75   32.10
   3  -5   2  505.95   36.50
   3  -5   2  472.75   45.80
   3  -5   2  533.85   30.80
  -4   5  -2  108.89   12.90
  -4   5  -2  102.69   16.20
  -4   5  -2  112.49    7.60
  -4   5  -2  123.99   12.40
   4  -5   2   89.29    9.80
   4  -5   2  116.89   13.50
   4  -5   2  111.39   17.20
  -5   5  -2    0.90    1.80
  -5   5  -2    1.50    2.40
  -5   5  -2    2.90    2.90
   5  -5   2   -2.60    5.40
   5  -5   2    4.90    4.70
   5  -5   2    3.60    2.30
   5   4  -2   25.00    5.10
   5   4  -2   24.00    7.00
   5   4  -2   21.70    3.40
  -5  -4   2   26.40   11.40
  -5  -4   2   25.90    7.50
  -5  -4   2   37.30   13.70
  -5  -4   2   22.70    4.50
   4   4  -2   77.29   10.30
   4   4  -2   64.29    9.50
   4   4  -2   91.39   11.70
   4   4  -2   71.29    6.10
   4   4  -2   76.19    9.70
   4   4  -2   91.79   10.20
  -4  -4   2   97.29   11.10
  -4  -4   2   82.69   11.90
  -4  -4   2   73.69    8.60
  -4  -4   2   84.29   18.20
   3   4  -2    1.80    3.60
   3   4  -2   16.40    9.30
   3   4  -2    2.70    4.40
   3   4  -2    4.20    3.80
   3   4  -2    5.10    5.10
   3   4  -2    4.10    2.40
  -3  -4   2    5.80    5.60
  -3  -4   2    1.80    2.40
  -3  -4   2    3.30    5.90
  -3  -4   2    4.30    5.60
  -3  -4   2    0.10    3.90
  -3  -4   2   13.80    9.90
   2   4  -2  178.68   13.90
   2   4  -2  151.58   12.30
   2   4  -2  179.08   13.70
   2   4  -2  172.08   12.30
  -2  -4   2  184.68   16.80
  -2  -4   2  179.18   15.30
  -2  -4   2  178.88   13.00
  -2  -4   2  195.38   17.40
  -2  -4   2  164.58   13.20
   1   4  -2  809.62   48.50
   1   4  -2  816.32   48.50
  -1  -4   2  883.31   50.29
  -1  -4   2  860.91   50.59
  -1  -4   2  879.51   48.40
   0   4  -2   60.69    7.40
   0   4  -2   57.79    7.80
   0   4  -2   58.19    7.20
   0  -4   2   62.79    8.30
  -1   4  -2  950.10   52.29
  -1   4  -2  907.81   49.20
  -1   4  -2  787.02   50.89
   1  -4   2  928.91   52.39
   1  -4   2  842.72   53.69
   1  -4   2 1049.79   61.49
   1  -4   2  952.50   51.19
  -2   4  -2  570.54   35.70
  -2   4  -2  561.14   30.90
  -2   4  -2  564.44   34.40
  -2   4  -2  551.24   32.60
   2  -4   2  556.74   32.50
   2  -4   2  529.95   42.60
   2  -4   2  580.74   34.40
   2  -4   2  604.04   36.00
   2  -4   2  545.95   34.80
  -3   4  -2    0.00    5.40
  -3   4  -2    3.40    4.00
  -3   4  -2    3.30    2.70
  -3   4  -2   -1.70    6.60
  -3   4  -2    4.40    3.30
   3  -4   2    5.40    2.70
   3  -4   2    3.00    3.70
   3  -4   2    5.80    7.10
   3  -4   2    0.90    7.20
  -4   4  -2  498.35   32.40
  -4   4  -2  497.75   30.70
  -4   4  -2  527.55   29.50
  -4   4  -2  529.15   33.30
   4  -4   2  494.35   38.30
   4  -4   2  530.75   33.30
   4  -4   2  544.95   30.90
  -5   4  -2    3.90    2.50
  -5   4  -2    6.80    4.30
   5  -4   2    6.30    4.80
   5  -4   2    7.50    3.00
   5  -4   2   10.10    9.80
  -6   4  -2    0.00    1.60
  -6   4  -2    1.00    1.30
   6  -4   2   -1.10    1.80
   6   3  -2   34.00    3.60
   6   3  -2   33.00    3.40
  -6  -3   2   40.00    5.00
   5   3  -2   37.30    9.50
   5   3  -2   48.40    7.20
   5   3  -2   43.20    4.90
  -5  -3   2   48.70    6.90
  -5  -3   2   37.40    9.30
  -5  -3   2   32.60   13.90
  -5  -3   2   27.40   14.50
   4   3  -2  104.69   13.10
   4   3  -2  113.19   10.20
   4   3  -2  101.99    7.90
   4   3  -2   87.69   11.30
   4   3  -2   97.49   10.70
   4   3  -2  107.09   11.20
  -4  -3   2  125.39   10.60
  -4  -3   2  112.69   12.70
  -4  -3   2  109.19   15.50
  -4  -3   2   96.99   18.50
  -4  -3   2  115.79   12.50
   3   3  -2   55.69    7.90
   3   3  -2   52.69    7.30
   3   3  -2   41.80    6.90
   3   3  -2   40.70    4.20
   3   3  -2   43.90    7.40
  -3  -3   2   60.19   13.00
  -3  -3   2   35.60   11.10
  -3  -3   2   49.99    8.40
  -3  -3   2   61.59    6.50
  -3  -3   2   37.20    6.60
   2   3  -2  442.26   28.10
   2   3  -2  412.66   26.90
  -2  -3   2  458.45   27.80
  -2  -3   2  452.55   26.90
  -2  -3   2  472.05   30.00
  -2  -3   2  496.55   34.70
   1   3  -2   53.29    6.70
   1   3  -2   52.89    6.50
  -1  -3   2   33.60    6.80
  -1  -3   2   27.80    6.50
  -1   3  -2   20.40    4.80
  -1   3  -2   23.90    3.70
   1  -3   2   20.20    6.10
   1  -3   2   24.30    4.70
   1  -3   2   14.70    5.20
  -2   3  -2 1338.07   72.99
  -2   3  -2 1340.97   76.39
  -2   3  -2 1377.96   76.59
   2  -3   2 1398.46   84.39
   2  -3   2 1385.46   76.19
   2  -3   2 1434.46   76.89
   2  -3   2 1309.87   74.09
   2  -3   2 1363.96   76.29
  -3   3  -2  142.59    9.40
  -3   3  -2  145.19   13.00
  -3   3  -2  148.69   14.60
  -3   3  -2  150.18    9.40
   3  -3   2  148.49   12.30
   3  -3   2  113.09   19.40
   3  -3   2  146.69   10.60
   3  -3   2  117.19   14.90
   3  -3   2  138.79   11.50
   3  -3   2  142.49   13.40
  -4   3  -2   53.09   10.20
  -4   3  -2   68.99    9.30
  -4   3  -2   59.09    7.70
  -4   3  -2   56.39    5.90
  -4   3  -2   54.59    6.50
   4  -3   2   63.79    7.40
   4  -3   2   51.19   16.00
   4  -3   2   48.80   13.10
   4  -3   2   63.39    8.70
  -5   3  -2   65.09    7.70
  -5   3  -2   68.39    6.70
   5  -3   2   74.09    8.00
   5  -3   2   93.89   12.40
   5  -3   2   81.49    6.30
   5  -3   2   93.29   15.10
  -6   3  -2    1.60    2.30
   6  -3   2   -2.30    1.20
   6  -3   2    0.20    2.90
   6   2  -2   50.69    4.30
  -6  -2   2   47.70    6.70
   5   2  -2   10.80    7.40
   5   2  -2   12.70    3.50
  -5  -2   2   19.50    8.20
  -5  -2   2    4.90   11.50
  -5  -2   2    7.10   10.80
  -5  -2   2   15.00    4.80
  -5  -2   2   24.20    6.20
   4   2  -2  132.79   10.50
   4   2  -2  161.18   12.70
   4   2  -2  157.28   12.60
   4   2  -2  147.09   10.40
  -4  -2   2  169.58   18.60
  -4  -2   2  162.98   14.80
  -4  -2   2  171.68   14.10
  -4  -2   2  156.58   19.70
   3   2  -2  769.72   49.40
   3   2  -2  876.41   50.59
   3   2  -2  870.51   48.00
   3   2  -2  904.61   50.39
  -3  -2   2  899.51   54.29
  -3  -2   2  903.71   50.79
  -3  -2   2  915.91   50.39
  -3  -2   2  939.61   58.79
   2   2  -2  248.28   17.00
   2   2  -2  233.98   16.40
  -2  -2   2  257.17   17.50
  -2  -2   2  245.48   20.40
  -2  -2   2  278.97   21.90
   1   2  -2  139.39   10.20
   1   2  -2  132.79    9.80
  -1  -2   2  141.79   11.50
  -1  -2   2  117.79   10.60
  -1  -2   2  127.19   10.20
  -1  -2   2  141.19   10.50
   0   2  -2 6171.78  324.27
  -2   2  -2  961.30   51.19
  -2   2  -2  903.51   54.19
  -2   2  -2 1002.10   53.39
   2  -2   2  942.91   59.19
   2  -2   2  938.81   53.39
   2  -2   2 1013.30   53.89
   2  -2   2  850.81   53.49
  -3   2  -2    7.50    5.20
  -3   2  -2   10.40    3.60
  -3   2  -2   11.00    4.00
  -3   2  -2    5.70    2.60
   3  -2   2   12.90    7.60
   3  -2   2    7.00    8.80
   3  -2   2    6.00    3.90
   3  -2   2   11.10    4.90
   3  -2   2    4.50    3.90
  -4   2  -2    8.40    5.60
  -4   2  -2    7.50    2.30
  -4   2  -2    5.40    5.30
  -4   2  -2    8.40    5.40
  -4   2  -2    4.00    3.80
  -4   2  -2    7.50    4.60
  -4   2  -2    5.50    3.80
  -4   2  -2    5.00    3.30
   4  -2   2    2.00    5.40
   4  -2   2    4.40    1.80
   4  -2   2   10.70   10.00
   4  -2   2    5.40    3.60
   4  -2   2    1.20    8.00
  -5   2  -2  166.08   15.80
  -5   2  -2  131.39   10.00
  -5   2  -2  134.29   10.30
  -5   2  -2  123.59   10.70
   5  -2   2  153.18   11.00
   5  -2   2  138.69   17.70
   5  -2   2  128.99   12.10
  -6   2  -2    0.20    3.00
   6  -2   2    3.10    3.20
   6  -2   2    0.40    1.40
   6   1  -2   27.00    3.60
  -6  -1   2   32.90    5.80
  -6  -1   2   41.00    4.80
   5   1  -2  273.67   16.50
   5   1  -2  229.18   20.80
   5   1  -2  255.97   17.70
  -5  -1   2  260.17   19.70
  -5  -1   2  243.98   24.80
  -5  -1   2  305.37   18.70
  -5  -1   2  268.87   20.00
   4   1  -2   -1.50    3.20
   4   1  -2   -2.40    4.30
   4   1  -2    1.90    4.70
   4   1  -2    2.90    3.60
   4   1  -2    1.00    6.90
  -4  -1   2   -2.00    3.90
  -4  -1   2   -3.00    5.20
  -4  -1   2   -0.50    3.20
  -4  -1   2    1.60    2.90
  -4  -1   2    4.60    6.70
  -4  -1   2    4.90    5.70
   3   1  -2    9.50    3.90
   3   1  -2   14.30    3.10
   3   1  -2    2.20    7.40
  -3  -1   2   23.80    8.10
  -3  -1   2   -2.60    6.50
  -3  -1   2   10.90    4.20
  -3  -1   2    9.60    3.90
   2   1  -2  897.01   48.80
   2   1  -2  874.71   50.09
   2   1  -2  866.61   55.59
   2   1  -2  852.01   48.70
  -2  -1   2  851.91   53.59
  -2  -1   2  975.70   51.69
  -2  -1   2  871.11   49.30
   1   1  -2    2.30    2.20
   1   1  -2    1.80    2.60
  -1  -1   2    0.70    2.20
  -1  -1   2    0.90    3.80
  -1  -1   2   -0.30    2.40
  -1  -1   2    1.60    2.30
   0   1  -2  102.59    7.50
   0   1  -2  103.89    9.60
   0   1  -2  111.19    7.30
   0  -1   2   98.29    6.10
   0  -1   2  107.99    8.80
   0  -1   2  100.59    8.70
  -1   1  -2  145.99    9.40
  -1   1  -2  139.39    9.40
  -1   1  -2  158.78   13.20
   1  -1   2  143.49   10.00
   1  -1   2  141.69   10.70
  -2   1  -2   33.10    3.80
  -2   1  -2   40.10    5.50
  -2   1  -2   24.80    6.00
   2  -1   2   50.19    9.10
   2  -1   2   34.80    5.00
   2  -1   2   23.70    5.20
  -3   1  -2  735.03   43.80
  -3   1  -2  655.23   47.60
  -3   1  -2  735.63   43.60
  -3   1  -2  779.42   45.80
   3  -1   2  786.22   47.90
   3  -1   2  719.23   44.60
   3  -1   2  868.71   47.10
   3  -1   2  867.41   44.40
   3  -1   2  852.71   53.19
  -4   1  -2    8.20    4.20
  -4   1  -2    3.70    3.40
  -4   1  -2    4.10    4.60
  -4   1  -2    7.40    2.90
  -4   1  -2    6.40    3.30
  -4   1  -2    9.00    2.80
   4  -1   2    7.60    2.10
   4  -1   2    8.00    2.90
   4  -1   2    1.30    2.90
   4  -1   2    5.50    7.50
   4  -1   2    4.70    5.20
   4  -1   2    6.50    3.20
   4  -1   2    7.00    6.30
  -5   1  -2   10.10    3.50
  -5   1  -2    5.10    7.30
  -5   1  -2    7.10    3.00
  -5   1  -2    7.10    4.30
   5  -1   2    6.80    3.90
   5  -1   2   14.20    4.80
   5  -1   2   10.30    3.30
  -6   1  -2   35.20    4.50
  -6   1  -2   19.50    3.20
   6  -1   2   26.50    4.50
   6  -1   2   26.40    5.90
   6   0  -2    8.30    2.00
   6   0  -2   10.70    2.70
  -6   0   2   10.80    4.00
  -6   0   2   10.80    3.70
  -6   0   2    7.10    2.80
   5   0  -2  159.08   11.20
   5   0  -2  165.98   12.20
  -5   0   2  176.68   14.50
  -5   0   2  178.08   12.50
  -5   0   2  146.39   12.10
   4   0  -2   30.50    5.50
   4   0  -2   29.10   11.70
   4   0  -2   34.70    5.20
  -4   0   2   26.70    6.00
  -4   0   2   46.40    8.10
  -4   0   2   34.60    6.70
  -4   0   2   41.80    5.10
  -4   0   2   38.20   11.70
  -4   0   2   37.60    6.30
   3   0  -2  101.89   11.40
   3   0  -2   96.19   16.80
   3   0  -2   75.39    9.50
   3   0  -2   77.19    9.30
   3   0  -2   84.09    8.30
   3   0  -2   77.59    6.40
  -3   0   2   89.39    9.40
  -3   0   2   73.29   12.50
  -3   0   2   88.19   13.80
  -3   0   2   81.89   10.00
   2   0  -2   19.20    4.00
   2   0  -2   18.00    3.00
   2   0  -2    9.30    8.20
   2   0  -2   15.80    6.40
  -2   0   2   14.20    7.50
  -2   0   2   15.30    4.10
  -2   0   2   21.40    5.60
   1   0  -2 1254.47   65.09
   1   0  -2 1168.58   64.19
   1   0  -2 1300.17   67.39
   1   0  -2 1247.18   63.49
  -1   0   2 1129.59   66.39
  -1   0   2 1169.88   64.49
  -1   0   2 1062.39   64.29
  -1   0  -2 1212.28   61.69
  -1   0  -2 1079.19   63.39
  -1   0  -2 1223.18   65.89
   1   0   2 1199.98   63.79
   1   0   2 1088.29   61.89
  -2   0  -2   14.90    5.70
  -2   0  -2   19.70    3.60
  -2   0  -2   25.70    3.70
   2   0   2   21.80    5.50
   2   0   2   19.30    4.40
   2   0   2   18.10    7.10
  -3   0  -2 1239.48   67.59
  -3   0  -2 1150.48   73.69
  -3   0  -2 1228.68   67.39
  -3   0  -2 1239.58   66.69
  -3   0  -2 1222.98   67.39
  -3   0  -2 1257.77   70.09
   3   0   2 1221.58   68.79
   3   0   2 1179.58   68.59
   3   0   2 1266.57   67.09
   3   0   2 1242.68   79.29
   3   0   2 1281.77   69.49
  -4   0  -2  148.39   13.00
  -4   0  -2  158.78   22.60
  -4   0  -2  184.58   13.10
  -4   0  -2  206.08   14.90
  -4   0  -2  166.48   12.40
  -4   0  -2  219.68   19.10
  -4   0  -2  163.68   11.40
   4   0   2  217.18   24.20
   4   0   2  218.08   16.20
   4   0   2  183.58   15.00
   4   0   2  160.98   11.10
   4   0   2  138.59   12.00
  -5   0  -2    6.20    4.40
  -5   0  -2   12.10    5.10
  -5   0  -2    8.40    3.80
  -5   0  -2    9.00    4.50
   5   0   2    8.10    2.70
   5   0   2   10.30    3.30
  -6   0  -2   48.90    5.20
  -6   0  -2   52.99    5.60
  -6   0  -2   57.69    5.60
   6   0   2   65.09    5.80
   6   0   2   45.10    5.00
   6  -1  -2    0.70    1.90
   6  -1  -2    3.40    2.80
  -6   1   2    1.90    2.80
  -6   1   2    2.70    1.50
  -6   1   2    6.50    3.90
   5  -1  -2   55.09    7.90
   5  -1  -2   54.99    5.80
   5  -1  -2   32.10    7.50
  -5   1   2   58.69    6.80
  -5   1   2   46.60    6.10
  -5   1   2   63.59    8.90
   4  -1  -2  179.18   14.40
   4  -1  -2  146.49   16.10
   4  -1  -2  159.48   11.70
   4  -1  -2  180.18   18.30
   4  -1  -2  154.58   21.50
   4  -1  -2  160.78   12.90
  -4   1   2  167.68   14.00
  -4   1   2  170.98   11.60
  -4   1   2  153.38   12.40
  -4   1   2  162.38   12.60
  -4   1   2  178.78   21.20
  -4   1   2  170.28   19.90
  -4   1   2  186.78   13.40
  -4   1   2  149.39   13.50
   3  -1  -2   26.90    8.40
   3  -1  -2   16.90    9.80
   3  -1  -2   23.20    5.60
   3  -1  -2   18.10    5.20
  -3   1   2   25.50    7.30
  -3   1   2   17.30    5.60
  -3   1   2   22.20    7.40
  -3   1   2   27.60    9.60
  -3   1   2   23.40    3.80
  -3   1   2   19.60    6.70
   2  -1  -2  207.58   13.90
   2  -1  -2  174.78   16.00
   2  -1  -2  169.68   18.10
  -2   1   2  185.28   13.00
  -2   1   2  173.48   15.60
  -2   1   2  227.78   17.60
   1  -1  -2  212.78   15.00
   1  -1  -2  191.98   11.90
  -1   1   2  191.58   12.20
  -1   1   2  188.88   11.70
  -1   1   2  172.68   13.90
  -1   1   2  181.38   14.00
   0  -1  -2 1291.87   62.99
   0  -1  -2 1028.20   62.49
   0  -1  -2 1319.87   64.79
   0   1   2  994.50   62.29
   0   1   2 1162.38   64.19
   0   1   2 1252.87   63.19
   0   1   2 1084.69   61.59
  -2  -1  -2  331.17   19.50
  -2  -1  -2  323.97   24.70
  -2  -1  -2  329.67   21.80
  -2  -1  -2  311.07   21.30
  -2  -1  -2  355.86   24.00
   2   1   2  327.47   23.20
   2   1   2  354.96   21.50
   2   1   2  362.46   19.90
  -3  -1  -2    9.80    8.30
  -3  -1  -2   14.20    5.40
  -3  -1  -2   12.50    3.40
  -3  -1  -2   22.00    8.80
   3   1   2    7.10    3.90
   3   1   2   14.10    3.90
   3   1   2   14.20    4.40
   3   1   2   22.40    8.00
  -4  -1  -2 1368.16   74.19
  -4  -1  -2 1294.27   73.69
  -4  -1  -2 1284.77   74.09
  -4  -1  -2 1380.46   74.49
  -4  -1  -2 1394.76   74.79
  -4  -1  -2 1533.85   80.19
  -4  -1  -2 1286.57   84.69
  -4  -1  -2 1359.36   72.99
   4   1   2 1387.76   84.09
   4   1   2 1216.18   72.99
   4   1   2 1287.87   72.19
   4   1   2 1398.66   76.49
   4   1   2 1345.17   76.39
  -5  -1  -2   46.90   11.60
  -5  -1  -2   19.60    3.60
  -5  -1  -2   13.70    4.80
  -5  -1  -2   25.40    4.80
  -5  -1  -2   12.40    5.20
  -5  -1  -2   33.60    8.20
   5   1   2   10.40    3.80
   5   1   2   18.30    3.20
  -6  -1  -2   82.69    7.30
  -6  -1  -2   95.29    8.10
  -6  -1  -2   80.19    7.70
   6   1   2   94.89    6.60
   6  -2  -2    8.10    2.60
   6  -2  -2   11.10    2.80
  -6   2   2    7.60    4.00
  -6   2   2    8.00    3.00
   5  -2  -2   13.00    4.80
   5  -2  -2   22.70    4.50
   5  -2  -2    9.30    6.20
  -5   2   2   17.80    6.90
  -5   2   2   23.00    4.20
  -5   2   2   12.80    5.30
  -5   2   2   15.20    7.20
   4  -2  -2  193.88   13.30
   4  -2  -2  194.58   15.00
   4  -2  -2  217.88   25.70
   4  -2  -2  256.47   23.60
   4  -2  -2  216.58   17.00
  -4   2   2  213.68   15.70
  -4   2   2  200.48   15.90
  -4   2   2  192.08   20.70
  -4   2   2  178.78   13.60
  -4   2   2  189.08   21.30
   3  -2  -2  659.13   38.00
   3  -2  -2  661.23   48.90
   3  -2  -2  656.23   41.50
   3  -2  -2  655.13   40.20
   3  -2  -2  650.13   38.10
  -3   2   2  665.93   45.10
  -3   2   2  609.64   36.20
  -3   2   2  662.53   38.60
  -3   2   2  639.04   37.30
  -3   2   2  705.83   45.40
   2  -2  -2    6.40    4.20
   2  -2  -2    5.60    9.20
   2  -2  -2    3.20    6.60
   2  -2  -2    0.30    3.00
  -2   2   2    6.30    5.00
  -2   2   2    1.70    3.40
  -2   2   2    9.00    6.10
  -2   2   2    4.70    1.50
  -2   2   2    4.50    1.60
   1  -2  -2    2.50    2.50
   1  -2  -2   10.20    3.00
   1  -2  -2    6.70    4.50
  -1   2   2    5.50    2.00
  -1   2   2    6.50    3.70
   0   2   2 6621.54  348.77
  -1  -2  -2 1169.88   64.89
   1   2   2 1080.49   64.69
   1   2   2 1190.68   62.69
  -2  -2  -2  543.35   31.60
  -2  -2  -2  497.75   37.00
  -2  -2  -2  615.14   35.00
  -2  -2  -2  591.64   34.50
  -2  -2  -2  607.84   37.40
   2   2   2  606.74   34.50
   2   2   2  619.34   34.20
   2   2   2  560.14   31.80
  -3  -2  -2   11.90    6.30
  -3  -2  -2    6.60    7.80
  -3  -2  -2   18.20    7.10
  -3  -2  -2    9.30    4.80
  -3  -2  -2   10.20    2.60
   3   2   2    8.40    4.30
   3   2   2    5.50    2.30
   3   2   2   12.20    4.30
  -4  -2  -2 1732.23   99.99
  -4  -2  -2 1686.43   94.19
  -4  -2  -2 1767.52   95.59
  -4  -2  -2 1739.13   94.69
  -4  -2  -2 1669.13   93.39
  -4  -2  -2 1837.52  108.79
   4   2   2 1843.02   95.69
   4   2   2 1746.43   93.59
   4   2   2 1715.63  103.19
   4   2   2 1661.63   92.49
   4   2   2 1731.23   97.29
  -5  -2  -2  424.96   27.70
  -5  -2  -2  383.66   39.40
  -5  -2  -2  426.86   26.30
  -5  -2  -2  421.66   28.30
  -5  -2  -2  417.16   24.60
  -5  -2  -2  414.16   26.00
   5   2   2  410.96   23.90
   5   2   2  403.36   27.70
  -6  -2  -2   90.39    8.60
  -6  -2  -2   83.79    7.00
  -6  -2  -2   78.79    8.10
  -6  -2  -2   82.89    7.50
   6   2   2   79.89    6.10
   6   2   2   85.69    6.60
   6  -3  -2   19.30    2.40
   6  -3  -2   18.10    3.20
  -6   3   2   21.30    3.00
   5  -3  -2    9.10    7.20
   5  -3  -2    8.60    3.70
   5  -3  -2   10.20    3.30
   5  -3  -2   -0.60    9.80
  -5   3   2    9.10    3.30
  -5   3   2   11.70    4.60
   4  -3  -2  191.68   14.70
   4  -3  -2  183.18   12.10
   4  -3  -2  197.88   23.80
   4  -3  -2  193.88   17.20
   4  -3  -2  170.88   24.40
  -4   3   2  191.98   15.10
  -4   3   2  186.98   17.00
  -4   3   2  186.38   12.70
  -4   3   2  181.08   15.00
   3  -3  -2  371.06   25.30
   3  -3  -2  440.66   35.60
   3  -3  -2  412.66   27.80
   3  -3  -2  458.45   26.10
  -3   3   2  491.35   27.10
  -3   3   2  397.26   24.60
  -3   3   2  427.76   26.40
  -3   3   2  376.86   23.40
  -3   3   2  344.17   30.60
   2  -3  -2   14.10    4.80
   2  -3  -2   13.10    4.00
   2  -3  -2   14.70    7.40
   2  -3  -2   16.10    7.20
  -2   3   2   18.70    7.90
   1  -3  -2  174.28   12.20
   1  -3  -2  185.28   13.20
   1  -3  -2  179.78   16.60
  -1   3   2  158.88   11.90
  -1   3   2  189.68   11.90
  -1   3   2  159.98   15.30
   0  -3  -2    0.60    2.20
   0  -3  -2    1.00    3.50
   0  -3  -2    2.40    1.30
   0  -3  -2    6.70    1.80
   0   3   2    5.80    4.30
   0   3   2    2.20    2.30
  -1  -3  -2 3859.11  185.28
   1   3   2 3104.39  179.38
   1   3   2 3174.28  184.18
   1   3   2 3493.85  181.08
  -2  -3  -2 3765.92  196.78
  -2  -3  -2 3711.23  193.58
  -2  -3  -2 3589.74  198.98
  -2  -3  -2 3796.62  202.98
   2   3   2 3663.13  196.98
   2   3   2 3591.74  193.18
  -3  -3  -2  705.03   41.90
  -3  -3  -2  661.13   47.80
  -3  -3  -2  703.83   42.50
  -3  -3  -2  634.14   38.40
   3   3   2  663.93   40.80
  -4  -3  -2  522.25   31.90
  -4  -3  -2  527.95   43.10
  -4  -3  -2  523.35   30.40
  -4  -3  -2  504.65   35.90
  -4  -3  -2  493.25   36.70
   4   3   2  507.15   33.00
   4   3   2  491.05   28.20
   4   3   2  511.25   31.00
   4   3   2  521.75   29.90
   4   3   2  482.95   29.80
  -5  -3  -2  391.66   24.10
  -5  -3  -2  328.37   30.50
  -5  -3  -2  360.46   24.60
  -5  -3  -2  339.47   25.10
  -5  -3  -2  416.36   24.50
   5   3   2  387.66   21.40
  -6  -3  -2    2.80    3.90
  -6  -3  -2    1.30    4.00
  -6  -3  -2    4.80    2.70
  -6  -3  -2    5.10    6.10
   6   3   2    3.20    2.20
   6   3   2    5.50    2.20
   5  -4  -2   82.09   10.70
   5  -4  -2   86.99   18.60
   5  -4  -2   98.09    8.70
  -5   4   2   87.79    7.10
  -5   4   2   77.09   10.40
  -5   4   2   87.99   11.20
   4  -4  -2  172.08   21.40
   4  -4  -2  205.28   15.00
   4  -4  -2  188.08   18.10
  -4   4   2  191.68   15.90
  -4   4   2  224.08   22.70
  -4   4   2  185.88   16.20
  -4   4   2  172.98   16.40
  -4   4   2  193.38   13.90
  -4   4   2  188.78   13.20
   3  -4  -2  818.82   45.30
   3  -4  -2  788.82   48.40
   3  -4  -2  789.12   45.90
   3  -4  -2  775.12   57.69
   3  -4  -2  766.02   49.80
  -3   4   2  769.12   44.30
  -3   4   2  726.23   42.60
  -3   4   2  806.22   46.50
  -3   4   2  778.82   53.09
  -3   4   2  739.63   43.80
  -3   4   2  792.62   46.10
  -3   4   2  817.12   45.90
   2  -4  -2   22.30    5.30
   2  -4  -2   27.30    7.80
   2  -4  -2   18.70    5.40
   2  -4  -2   29.10    9.90
  -2   4   2   13.00    4.70
   1  -4  -2 1448.56   75.59
   1  -4  -2 1388.36   80.79
   1  -4  -2 1270.27   75.29
  -1   4   2 1428.66   74.69
  -1   4   2 1353.16   79.69
   0  -4  -2   34.70    6.60
   0  -4  -2   33.80    4.10
   0  -4  -2   28.20    7.00
   0   4   2   31.10    5.70
   0   4   2   35.00    7.30
   0   4   2   30.50    4.70
  -1  -4  -2 3672.13  189.98
   1   4   2 3477.25  183.28
   1   4   2 3400.96  184.78
   1   4   2 3311.57  189.08
  -2  -4  -2   12.80    8.60
  -2  -4  -2   42.60    8.20
  -2  -4  -2   32.30    6.80
   2   4   2   29.70    6.20
   2   4   2   29.00    3.30
  -3  -4  -2 1110.99   70.29
  -3  -4  -2 1092.19   60.89
  -3  -4  -2 1035.00   57.69
  -3  -4  -2 1048.90   61.19
   3   4   2  953.10   57.69
   3   4   2 1057.29   56.29
   3   4   2 1074.89   60.69
   3   4   2  957.50   55.59
  -4  -4  -2  223.18   16.70
  -4  -4  -2  205.58   17.20
  -4  -4  -2  196.98   24.30
  -4  -4  -2  194.98   21.80
  -4  -4  -2  218.08   21.40
   4   4   2  193.08   16.20
   4   4   2  214.58   18.10
   4   4   2  218.18   12.90
   4   4   2  212.08   17.70
  -5  -4  -2   70.69   10.40
  -5  -4  -2   80.29   16.30
  -5  -4  -2   72.39   11.00
  -5  -4  -2   84.49    8.90
  -5  -4  -2   70.09    8.30
   5   4   2   75.29   10.00
   5   4   2   58.29    6.70
   5   4   2   60.79    8.30
   5   4   2   72.49    6.00
  -6  -4  -2   -6.90    4.20
  -6  -4  -2    3.10    4.20
  -6  -4  -2   -3.70    3.20
  -6  -4  -2   -1.30    3.50
   6   4   2    0.70    1.30
   6   4   2   -0.20    1.20
   6   4   2    0.60    1.60
   5  -5  -2  121.29   18.80
   5  -5  -2  130.29    9.70
   5  -5  -2  115.59   13.50
  -5   5   2  117.29    8.00
  -5   5   2  102.69   10.30
   4  -5  -2    2.40    6.80
   4  -5  -2    8.20   13.40
   4  -5  -2    7.20    3.60
  -4   5   2    7.20    4.40
  -4   5   2    6.10    6.60
  -4   5   2   14.20    7.80
  -4   5   2    0.80    4.50
  -4   5   2    4.60    5.90
  -4   5   2    3.20    3.50
   3  -5  -2 1208.58   65.69
   3  -5  -2 1123.09   71.19
   3  -5  -2 1139.29   66.59
   3  -5  -2 1099.59   80.09
  -3   5   2 1183.88   66.99
  -3   5   2 1218.38   65.19
  -3   5   2 1329.57   68.79
  -3   5   2 1138.89   64.59
  -3   5   2 1017.00   69.79
  -3   5   2 1295.37   75.89
   2  -5  -2   50.99    9.30
   2  -5  -2   38.20   11.10
   2  -5  -2   50.29    7.40
   2  -5  -2   66.89    8.70
  -2   5   2   37.20    8.50
  -2   5   2   60.49    8.10
  -2   5   2   71.09   12.00
  -2   5   2   55.59    6.80
  -2   5   2   48.90    5.70
  -2   5   2   65.69    9.50
  -2   5   2   55.09    4.80
   1  -5  -2    3.30    2.60
   1  -5  -2    3.50    5.50
   1  -5  -2    0.90    3.50
  -1   5   2    2.10    5.10
   0  -5  -2   57.79    5.80
   0  -5  -2   52.59   10.50
   0  -5  -2   59.69    5.60
   0  -5  -2   57.09    8.50
   0   5   2   55.89    5.90
   0   5   2   57.49    9.50
  -1  -5  -2  124.89   15.50
   1   5   2  121.89   11.40
   1   5   2  130.59   10.80
   1   5   2  115.59   15.10
  -2  -5  -2  532.75   37.20
  -2  -5  -2  639.64   44.10
  -2  -5  -2  607.74   36.30
   2   5   2  614.04   37.00
   2   5   2  564.54   34.00
   2   5   2  605.74   33.10
   2   5   2  625.14   36.60
  -3  -5  -2  100.59   12.90
  -3  -5  -2   98.69    9.70
  -3  -5  -2   97.59   16.10
  -3  -5  -2  121.59   13.60
   3   5   2   74.89    8.00
   3   5   2   91.19   10.80
   3   5   2   93.59    9.70
   3   5   2   77.99    7.30
   3   5   2   84.39    5.80
   3   5   2  103.79   12.40
  -4  -5  -2   10.80   10.10
  -4  -5  -2    4.40    6.10
  -4  -5  -2    5.40    3.40
  -4  -5  -2    1.90    9.10
   4   5   2    5.40    4.10
   4   5   2    0.10    7.40
   4   5   2    3.10    2.10
   4   5   2    6.00    4.40
   4   5   2    3.20    2.30
   4   5   2    2.50    5.60
  -5  -5  -2  195.88   13.10
  -5  -5  -2  149.79   18.20
  -5  -5  -2  198.78   14.40
  -5  -5  -2  184.08   17.30
  -5  -5  -2  181.18   16.40
   5   5   2  175.98   12.30
   5   5   2  197.18   12.10
   5   5   2  176.08   14.40
   5   5   2  195.78   11.00
   5   5   2  185.28   13.90
  -6  -5  -2    6.60    5.00
  -6  -5  -2    3.90    2.20
  -6  -5  -2    3.20    2.10
   6   5   2    2.20    1.50
   5  -6  -2   57.59    9.30
   5  -6  -2   55.79    5.40
  -5   6   2   62.19    3.90
  -5   6   2   59.39    4.30
   4  -6  -2   72.69   10.70
   4  -6  -2  109.79   18.70
   4  -6  -2   86.09    7.80
  -4   6   2   90.29    6.80
  -4   6   2   82.79    7.90
  -4   6   2   75.49   11.10
  -4   6   2   86.99    9.70
  -4   6   2   91.09    8.80
   3  -6  -2  158.38   13.00
   3  -6  -2  184.98   15.30
   3  -6  -2  196.78   21.60
  -3   6   2  188.28   16.60
  -3   6   2  156.28   13.80
  -3   6   2  193.08   17.30
  -3   6   2  187.68   11.40
  -3   6   2  196.38   13.80
  -3   6   2  176.48   12.90
  -3   6   2  193.28   20.30
   2  -6  -2   15.20    7.20
   2  -6  -2   22.80    4.80
   2  -6  -2   18.80    8.00
   2  -6  -2   14.00    4.70
  -2   6   2   14.80    4.90
  -2   6   2   10.20    4.70
  -2   6   2   16.30    6.50
  -2   6   2    8.80    6.30
  -2   6   2   15.50    2.10
  -2   6   2   27.50    6.60
   1  -6  -2   32.60    5.70
   1  -6  -2   47.60   10.30
   1  -6  -2   49.80    7.90
   1  -6  -2   46.10   10.30
  -1   6   2   33.90    4.70
  -1   6   2   40.40    5.20
  -1   6   2   66.09    9.90
  -1   6   2   66.69    8.40
  -1   6   2   43.10    8.70
   0  -6  -2    9.60    4.20
   0  -6  -2   16.10    2.90
   0  -6  -2   12.30    6.80
   0   6   2   19.30    4.70
   0   6   2   19.80    4.00
   0   6   2   22.50    3.20
   0   6   2   22.00    4.60
   0   6   2   25.70    5.30
  -1  -6  -2   34.80    9.00
  -1  -6  -2   28.80    8.60
   1   6   2   38.70    5.50
   1   6   2   24.60    9.20
   1   6   2   38.60    5.70
   1   6   2   30.20    3.60
   1   6   2   33.30    5.60
   1   6   2   57.59   10.70
   1   6   2   40.50    5.30
   1   6   2   40.40    4.90
  -2  -6  -2   83.89   10.20
   2   6   2   81.59    7.50
   2   6   2   91.79   11.40
   2   6   2   95.89    7.30
   2   6   2   97.79    7.90
   2   6   2   88.69   10.50
   2   6   2   96.89    9.80
  -3  -6  -2   25.30    9.40
  -3  -6  -2   14.60    9.50
  -3  -6  -2   14.70    9.40
  -3  -6  -2   19.20    5.00
   3   6   2   14.40    4.50
   3   6   2   16.60    4.90
   3   6   2   26.20    9.10
   3   6   2   11.80    3.50
   3   6   2   13.50    6.80
   3   6   2    9.90    3.50
  -4  -6  -2  267.37   23.50
  -4  -6  -2  269.37   22.70
  -4  -6  -2  266.17   20.30
   4   6   2  282.07   21.70
   4   6   2  291.47   21.90
   4   6   2  279.47   16.80
   4   6   2  267.67   15.10
   4   6   2  291.57   19.50
   4   6   2  276.17   17.70
   4   6   2  264.07   18.10
  -5  -6  -2   13.40    5.50
  -5  -6  -2   10.90    8.80
  -5  -6  -2   28.00    5.60
  -5  -6  -2   21.00    5.40
  -5  -6  -2    9.30    4.50
  -5  -6  -2   27.40    6.10
   5   6   2   20.50    5.60
   5   6   2   26.60    3.30
   5   6   2   19.60    5.20
   5   6   2   15.30    2.60
   4  -7  -2   16.40    5.50
   4  -7  -2   12.00    2.80
   4  -7  -2   25.10   10.80
  -4   7   2   16.20    5.20
  -4   7   2   20.10    5.80
  -4   7   2   10.90    2.10
  -4   7   2   11.20    5.50
   3  -7  -2    6.30    6.20
   3  -7  -2    2.90    1.90
   3  -7  -2   -1.40    6.90
  -3   7   2   -1.30    2.30
  -3   7   2   -1.30    3.10
  -3   7   2   -3.70    4.50
  -3   7   2    5.60    3.20
  -3   7   2    5.40    7.60
   2  -7  -2   83.69   13.40
   2  -7  -2   54.69   11.70
   2  -7  -2   47.10    8.90
  -2   7   2   60.59    7.90
  -2   7   2   63.09    6.30
  -2   7   2   69.59    9.80
  -2   7   2   54.49   11.50
  -2   7   2   81.19   11.20
  -2   7   2   54.49    6.20
   1  -7  -2   10.90    5.60
   1  -7  -2    4.60    5.30
  -1   7   2   13.60    7.30
  -1   7   2   16.10    4.70
  -1   7   2   11.60    6.10
  -1   7   2   12.60    6.70
  -1   7   2   15.60    3.50
   0  -7  -2  165.48   17.00
   0   7   2  155.08   14.30
   0   7   2  157.38   10.90
   0   7   2  108.49   11.90
   0   7   2  163.48   17.90
   0   7   2  140.49   11.30
   0   7   2  143.69    9.90
   0   7   2  135.09   11.90
   0   7   2  124.49   11.10
  -1  -7  -2  630.94   42.80
  -1  -7  -2  772.92   51.19
   1   7   2  684.43   39.10
   1   7   2  714.93   41.40
   1   7   2  707.23   40.10
   1   7   2  700.53   42.40
   1   7   2  741.43   50.89
   1   7   2  693.63   39.70
   1   7   2  726.43   40.70
   1   7   2  717.83   39.40
   1   7   2  690.43   42.40
  -2  -7  -2  115.09   12.00
  -2  -7  -2  120.19   12.20
   2   7   2  139.89   13.90
   2   7   2  159.78   11.80
   2   7   2  110.69   10.00
   2   7   2  118.29   12.00
   2   7   2  118.69    9.20
   2   7   2  151.68   14.20
  -3  -7  -2   99.09   10.60
  -3  -7  -2   88.29   13.90
  -3  -7  -2   78.79   13.40
   3   7   2  135.59    8.60
   3   7   2  102.59   14.90
   3   7   2  108.59    8.90
   3   7   2  119.79   11.90
   3   7   2  124.79   10.30
   3   7   2   98.59   13.10
  -4  -7  -2   79.19   14.00
  -4  -7  -2   97.99   10.30
   4   7   2   92.19    8.60
   4   7   2  117.49   11.70
   4   7   2   89.99    7.50
   4   7   2  102.99   11.60
   4   7   2  100.79    7.70
  -5  -7  -2   49.90    4.90
  -5  -7  -2   59.39    5.20
  -5  -7  -2   68.89   10.50
  -5  -7  -2   63.59   14.70
  -5  -7  -2   73.69    9.00
  -5  -7  -2   71.29    6.80
   5   7   2   64.89    6.10
   5   7   2   57.39    4.70
   5   7   2   52.89    6.70
   4  -8  -2   17.50    2.50
   4  -8  -2   18.80    5.30
   4  -8  -2   24.90    6.20
  -4   8   2   16.80    4.20
  -4   8   2   12.70    3.20
  -4   8   2   12.20    5.50
   3  -8  -2   13.60    5.70
   3  -8  -2   13.00    9.20
  -3   8   2   17.70    6.20
  -3   8   2   14.20    4.70
  -3   8   2   17.20    3.30
  -3   8   2   14.10    5.40
   2  -8  -2    7.40    4.60
   2  -8  -2    2.00    7.90
  -2   8   2   11.10    5.50
  -2   8   2   -1.70    5.10
  -2   8   2    4.40    3.80
  -2   8   2    3.00    6.10
  -2   8   2    1.80    6.10
   1  -8  -2  154.38   14.70
  -1   8   2  175.98   16.60
  -1   8   2  181.38   14.70
  -1   8   2  176.88   15.20
  -1   8   2  206.08   12.90
  -1   8   2  233.28   23.40
   0   8   2   14.40    3.70
   0   8   2   15.60    5.00
   0   8   2   11.80    5.80
   0   8   2   12.60    7.10
   0   8   2   15.50    4.00
   0   8   2   15.40    7.80
   0   8   2    8.20    4.10
   1   8   2   43.50    7.40
   1   8   2   62.29    8.40
   1   8   2   48.50   10.00
   1   8   2   65.59    5.90
   1   8   2   79.29   13.90
   1   8   2   52.89    8.70
   1   8   2   55.49    6.90
   1   8   2   56.59    7.40
   2   8   2  546.15   35.50
   2   8   2  643.34   40.00
   2   8   2  649.83   36.50
   2   8   2  604.24   39.50
   2   8   2  670.13   35.10
  -3  -8  -2    3.60    5.80
   3   8   2    1.90    1.50
   3   8   2   10.30    8.40
   3   8   2    4.90    2.90
   3   8   2    6.80    6.10
   3   8   2    8.20    3.70
  -4  -8  -2   38.00    8.50
  -4  -8  -2   43.90    7.20
  -4  -8  -2   42.00    6.80
  -4  -8  -2   71.09    7.40
   4   8   2   64.29    7.30
   4   8   2   56.59    4.60
   4   8   2   51.79    8.20
   4   8   2   47.60    3.60
   3  -9  -2   39.70    6.10
   3  -9  -2   50.49   12.80
  -3   9   2   37.30    5.90
  -3   9   2   29.00    7.60
   2  -9  -2    4.20    6.10
   2  -9  -2    5.80    3.60
  -2   9   2    8.00    8.10
  -2   9   2    3.60    2.90
  -2   9   2   -0.80    5.10
  -2   9   2    5.90    4.10
   1  -9  -2   27.20    5.30
  -1   9   2   17.10    5.80
  -1   9   2   20.10    7.00
  -1   9   2   20.90    6.70
  -1   9   2   26.80    4.00
   0   9   2   40.10    5.40
   0   9   2   37.90    6.80
   0   9   2   41.50    7.60
   0   9   2   55.39    7.70
   0   9   2   46.20   10.00
   1   9   2   -3.20    7.10
   1   9   2   -1.20    3.50
   1   9   2    2.70    2.30
   1   9   2    1.10    2.90
   1   9   2   -1.70    3.20
   1   9   2    1.10    4.70
   2   9   2   11.40    3.30
   2   9   2    8.70    5.50
   2   9   2   15.20    4.70
   2   9   2   11.00    2.70
  -3  -9  -2   74.19    7.00
  -3  -9  -2   56.99    7.70
  -3  -9  -2   66.59    6.60
   3   9   2   73.49    5.50
   3   9   2   58.59    5.40
   3   9   2   74.29   10.70
   3   9   2   74.69    9.30
  -4  -9  -2   41.00    5.00
   4   9   2   56.59    5.90
   4   9   2   57.69    4.10
  -2  10   2    4.30    4.30
  -2  10   2   -0.10    3.30
  -2  10   2    0.00    2.80
  -1  10   2   16.00    5.90
  -1  10   2   16.80    4.80
  -1  10   2   23.00    2.60
  -1  10   2   18.90    5.60
   0  10   2    1.10    4.60
   0  10   2   10.70    6.10
   0  10   2   10.90    3.50
   0  10   2    7.40    2.20
   1  10   2   15.90    4.30
   1  10   2   13.90    5.90
   1  10   2   22.90    4.20
   1  10   2   28.10    3.70
   1  10   2   30.70    3.70
   2  10   2    2.50    2.20
   2  10   2    3.00    2.10
   2  10   2    1.60    4.20
   2  10   2    6.80    4.60
   3  10   2   23.20    4.40
   3  10   2   19.60    2.80
   0  11   2   12.00    2.90
   0  11   2   10.10    2.40
   1  10  -3    2.50    1.50
   1  10  -3    2.10    2.10
   0  10  -3   47.20    4.70
   2   9  -3   49.90    7.00
   2   9  -3   73.89    7.80
   2   9  -3   74.99    6.80
   1   9  -3  132.79   13.10
   1   9  -3  115.49    9.40
   0   9  -3    4.00    3.60
   0   9  -3    1.20    4.90
   0   9  -3    6.30    2.20
  -1   9  -3   31.30    7.20
  -1   9  -3   36.30    5.80
  -1   9  -3   57.69    6.90
   1  -9   3   42.30    5.20
  -2   9  -3   13.30    2.80
  -2   9  -3   11.60    3.80
  -2   9  -3    2.70    4.90
   2  -9   3    8.40    2.60
   3   8  -3   77.79    7.40
   3   8  -3   62.39    9.00
  -3  -8   3   67.19   11.40
   2   8  -3   10.00    6.70
   2   8  -3    1.40    2.90
   2   8  -3    3.90    3.70
  -2  -8   3    5.10    3.80
   1   8  -3  158.78   14.80
   1   8  -3  191.78   12.40
  -1  -8   3  146.79   12.10
  -1  -8   3  150.58   15.40
  -1  -8   3  168.38   13.70
   0   8  -3    4.20    4.20
   0   8  -3    7.70    6.20
   0   8  -3  -12.70    4.50
   0   8  -3    1.30    4.30
   0  -8   3    5.10    4.40
  -1   8  -3   13.10    4.60
  -1   8  -3   16.30    3.70
  -1   8  -3    8.80    9.00
   1  -8   3   15.30    6.00
   1  -8   3    8.50    4.20
  -2   8  -3   47.40    6.50
  -2   8  -3   54.29    6.90
  -2   8  -3   33.90    7.70
   2  -8   3   30.50    7.60
   2  -8   3   39.20    6.00
  -3   8  -3    3.50    4.40
  -3   8  -3    2.10    5.50
  -3   8  -3    1.30    5.60
   3  -8   3    1.20    3.80
   3  -8   3   -2.40    4.90
   4   7  -3   10.20    4.70
   4   7  -3    9.80    4.30
   4   7  -3    9.90    3.20
  -4  -7   3    8.00    7.50
  -4  -7   3    4.90    5.20
   3   7  -3   61.19    7.30
   3   7  -3   39.10    6.90
   3   7  -3   39.90    7.70
  -3  -7   3   26.80    9.50
  -3  -7   3   44.10    7.90
   2   7  -3   10.30    4.60
   2   7  -3   14.20    8.70
   2   7  -3   12.90    5.30
  -2  -7   3    6.40    7.70
  -2  -7   3    7.30    4.80
  -2  -7   3    3.60    5.30
   1   7  -3  317.97   24.40
   1   7  -3  352.76   20.20
   1   7  -3  317.77   20.40
   1   7  -3  307.57   22.70
   1   7  -3  265.27   20.60
  -1  -7   3  277.17   19.30
  -1  -7   3  257.17   21.90
   0   7  -3  178.38   17.90
   0   7  -3  156.78   12.40
   0   7  -3  160.68   16.00
   0   7  -3  190.28   12.30
   0   7  -3  176.78   13.20
   0  -7   3  202.98   29.50
   0  -7   3  151.18   15.20
  -1   7  -3  112.09   13.10
  -1   7  -3  106.79   11.30
  -1   7  -3  101.69   15.20
  -1   7  -3  105.79    8.60
   1  -7   3   89.09    9.10
   1  -7   3   95.79   11.40
  -2   7  -3   20.80    4.00
  -2   7  -3   13.90    6.70
  -2   7  -3   18.50    9.50
  -2   7  -3   11.90    4.60
   2  -7   3   19.90    7.60
   2  -7   3   16.70    5.00
  -3   7  -3   46.60    6.20
  -3   7  -3   40.90    7.50
  -3   7  -3   36.10    9.50
  -3   7  -3   36.20    6.30
   3  -7   3   40.60    6.50
   3  -7   3   30.80    9.60
   3  -7   3   47.20    4.70
  -4   7  -3    7.70    2.30
  -4   7  -3    7.60    3.70
  -4   7  -3    6.80    4.30
   4  -7   3    5.00    1.90
   4  -7   3   11.80    5.20
   4  -7   3   14.30    5.70
   5   6  -3    2.40    0.70
   5   6  -3    2.00    2.20
   5   6  -3    3.20    3.50
  -5  -6   3    1.10    4.60
  -5  -6   3    3.20    1.50
   4   6  -3   48.90    7.10
   4   6  -3   33.90    3.60
   4   6  -3   30.60    5.20
   4   6  -3   45.90   10.00
  -4  -6   3   38.30   10.50
  -4  -6   3   41.90    9.30
   3   6  -3  128.19   11.30
   3   6  -3  129.59   15.60
   3   6  -3  150.58   11.90
   3   6  -3  134.59    8.70
  -3  -6   3  127.89   14.60
  -3  -6   3  105.99   18.40
  -3  -6   3  109.59   11.00
  -3  -6   3  125.49   13.80
   2   6  -3   17.30    6.50
   2   6  -3    9.20    9.20
   2   6  -3   16.50    4.60
   2   6  -3   11.30    6.00
  -2  -6   3   11.90    9.10
  -2  -6   3    9.30    6.80
  -2  -6   3   11.30    5.50
  -2  -6   3    7.60    5.20
   1   6  -3   51.09    9.50
   1   6  -3   57.19    7.80
   1   6  -3   53.09   10.00
   1   6  -3   64.69   10.00
   1   6  -3   55.69    8.80
  -1  -6   3   66.89   11.50
  -1  -6   3   54.39    7.00
  -1  -6   3   49.10   10.00
   0   6  -3  848.52   52.79
   0   6  -3  845.02   48.40
   0   6  -3  883.61   52.19
   0   6  -3  868.61   49.10
   0   6  -3  874.01   48.50
   0  -6   3  920.81   57.89
  -1   6  -3   59.59   11.10
  -1   6  -3   40.80    8.40
  -1   6  -3   47.20    6.00
  -1   6  -3   65.39    8.30
   1  -6   3   41.20    5.80
   1  -6   3   55.79    8.70
   1  -6   3   44.00   13.40
  -2   6  -3   39.40    6.40
  -2   6  -3   42.00   10.90
  -2   6  -3   42.40    6.20
  -2   6  -3   35.60    3.10
  -2   6  -3   36.70    5.30
  -2   6  -3   38.90    8.60
   2  -6   3   30.80    8.10
   2  -6   3   41.80    6.40
   2  -6   3   44.90   14.50
  -3   6  -3    9.00    6.60
  -3   6  -3    8.10    5.50
  -3   6  -3    5.70    4.90
  -3   6  -3    7.20    4.10
  -3   6  -3    5.60    2.10
   3  -6   3    7.70    2.80
   3  -6   3    7.90    8.60
   3  -6   3    9.30    5.40
  -4   6  -3    3.30    4.60
  -4   6  -3    3.50    1.80
  -4   6  -3    6.60    4.50
  -4   6  -3    4.90    3.60
   4  -6   3    5.20    2.80
   4  -6   3    6.90    8.60
   4  -6   3   -1.00    3.90
  -5   6  -3    3.40    2.70
  -5   6  -3    7.40    2.10
   5  -6   3   10.10    3.70
   5  -6   3    6.90    1.90
   5   5  -3  107.39    6.70
   5   5  -3   91.69    6.10
   5   5  -3   85.29    9.10
  -5  -5   3   91.99   12.30
  -5  -5   3   67.69   15.10
  -5  -5   3   94.49    7.50
  -5  -5   3   64.99   13.80
   4   5  -3   27.00    4.00
   4   5  -3   33.90   10.20
   4   5  -3   29.90    6.10
   4   5  -3   25.70    5.00
   4   5  -3   28.00    3.50
  -4  -5   3   26.70    4.90
  -4  -5   3   39.60    9.60
  -4  -5   3   31.20   12.30
  -4  -5   3   28.40    5.70
   3   5  -3    1.80    6.80
   3   5  -3   -3.00    5.20
   3   5  -3    5.10    3.90
   3   5  -3    3.70    2.40
   3   5  -3    4.40    2.20
   3   5  -3    5.50    4.40
   3   5  -3    5.70    5.50
  -3  -5   3   -1.00    3.30
  -3  -5   3   15.50   11.90
  -3  -5   3    3.30    4.70
  -3  -5   3    4.80    5.00
  -3  -5   3    2.80    3.10
   2   5  -3   55.19    8.10
   2   5  -3   65.39    4.60
   2   5  -3   57.79    7.90
   2   5  -3   47.40    8.50
   2   5  -3   69.69    8.80
   2   5  -3   71.49   11.60
  -2  -5   3   50.79    7.90
  -2  -5   3   56.19    8.70
  -2  -5   3   58.79    9.80
  -2  -5   3   48.90   11.60
  -2  -5   3   59.59    9.70
   1   5  -3   74.09    7.20
   1   5  -3   83.79    9.40
   1   5  -3   88.49   10.90
   1   5  -3   87.09   11.00
   1   5  -3   82.09   11.00
   1   5  -3   79.29    7.90
  -1  -5   3   87.59   11.70
  -1  -5   3   75.29    7.40
  -1  -5   3   74.79   11.20
   0   5  -3   21.20    5.50
   0   5  -3   20.40    7.50
   0   5  -3   27.00    4.50
   0  -5   3   26.10    5.70
   0  -5   3   19.20    5.50
   0  -5   3   27.80    8.00
  -1   5  -3  346.67   21.30
  -1   5  -3  387.66   23.30
  -1   5  -3  345.57   24.60
  -1   5  -3  366.86   25.10
   1  -5   3  353.46   33.40
   1  -5   3  331.87   21.50
   1  -5   3  350.96   23.70
   1  -5   3  400.46   26.10
   1  -5   3  385.36   27.70
  -2   5  -3  210.28   15.30
  -2   5  -3  241.88   16.30
  -2   5  -3  236.88   21.30
  -2   5  -3  220.68   15.90
  -2   5  -3  246.08   18.50
  -2   5  -3  231.08   13.70
   2  -5   3  231.48   16.50
   2  -5   3  251.87   30.80
   2  -5   3  230.08   18.80
   2  -5   3  239.18   15.60
   2  -5   3  244.98   19.50
  -3   5  -3  133.59    9.10
  -3   5  -3  115.29   12.40
  -3   5  -3  120.09   15.70
  -3   5  -3  134.09   10.80
  -3   5  -3  127.89   12.80
   3  -5   3  118.29   16.30
   3  -5   3  120.89    9.80
   3  -5   3  100.19   12.30
   3  -5   3  124.99   22.30
  -4   5  -3    8.20    3.20
  -4   5  -3    4.70    4.60
  -4   5  -3   15.80    6.60
  -4   5  -3    1.70    5.00
  -4   5  -3    3.40    3.00
   4  -5   3    8.90    2.90
   4  -5   3    2.20    6.30
   4  -5   3    7.30    7.40
  -5   5  -3    8.30    2.90
  -5   5  -3    5.10    1.70
  -5   5  -3    5.60    2.90
   5  -5   3    5.90    4.20
   5  -5   3    4.80    2.60
   5  -5   3   12.60    5.60
   5   4  -3  240.88   15.80
   5   4  -3  232.78   13.30
   5   4  -3  206.58   16.90
   5   4  -3  218.78   13.50
  -5  -4   3  179.38   23.90
  -5  -4   3  206.18   19.00
  -5  -4   3  239.88   15.40
  -5  -4   3  266.17   19.90
  -5  -4   3  190.58   23.50
   4   4  -3   12.50    3.40
   4   4  -3   17.30    7.70
   4   4  -3    0.40    3.70
   4   4  -3    6.90    4.70
   4   4  -3   16.80    5.30
  -4  -4   3   13.10    4.70
  -4  -4   3   12.40   14.70
  -4  -4   3   12.50    6.00
  -4  -4   3   11.10    5.70
   3   4  -3   27.00    3.40
   3   4  -3   27.40    6.60
   3   4  -3   15.10    5.30
   3   4  -3   18.10    6.10
  -3  -4   3   20.00    7.80
  -3  -4   3    5.00   10.10
  -3  -4   3   19.70    6.60
  -3  -4   3   35.70    5.80
  -3  -4   3   29.60    7.00
  -3  -4   3   22.70    7.60
   2   4  -3  177.88   12.80
   2   4  -3  156.38   13.20
   2   4  -3  167.58    9.90
   2   4  -3  166.98   12.00
   2   4  -3  156.78   13.50
  -2  -4   3  132.59   17.10
  -2  -4   3  139.59   12.90
  -2  -4   3  153.08   13.60
  -2  -4   3  170.78   15.80
  -2  -4   3  168.58   15.50
   1   4  -3  232.68   16.40
   1   4  -3  219.18   16.00
  -1  -4   3  240.78   19.30
  -1  -4   3  220.68   17.20
  -1  -4   3  203.88   14.50
   0   4  -3    9.50    3.50
   0  -4   3    9.90    5.90
  -1   4  -3  451.65   28.20
  -1   4  -3  434.46   24.90
   1  -4   3  452.45   30.80
   1  -4   3  401.36   25.50
   1  -4   3  476.15   29.60
   1  -4   3  426.26   27.30
  -2   4  -3   64.59   10.10
  -2   4  -3   62.29    5.30
  -2   4  -3   59.49    8.40
  -2   4  -3   61.49    5.10
  -2   4  -3   67.09   10.00
  -2   4  -3   59.59    6.40
   2  -4   3   68.19    7.90
   2  -4   3   66.29   14.60
   2  -4   3   63.99   10.40
   2  -4   3   67.79    8.90
   2  -4   3   71.29    9.10
  -3   4  -3 1543.55   86.89
  -3   4  -3 1616.34   85.29
  -3   4  -3 1658.63   89.29
  -3   4  -3 1608.74   87.69
   3  -4   3 1593.24   91.89
   3  -4   3 1617.94   88.09
   3  -4   3 1510.95  106.09
   3  -4   3 1594.34   86.39
  -4   4  -3   40.40    6.90
  -4   4  -3   32.10    4.20
  -4   4  -3   32.30    7.90
  -4   4  -3   34.50    7.80
   4  -4   3   37.20    8.20
   4  -4   3   39.50   12.40
   4  -4   3   39.30    6.20
  -5   4  -3    0.60    2.00
  -5   4  -3    0.80    2.90
   5  -4   3    0.20    9.10
   5  -4   3   -1.40    4.10
   5  -4   3    2.40    2.60
   5   3  -3   40.00    6.50
   5   3  -3   45.20    5.60
   5   3  -3   55.29    8.60
  -5  -3   3   38.60   15.30
  -5  -3   3   37.60    8.20
  -5  -3   3   35.90    6.80
  -5  -3   3   49.80    8.80
  -5  -3   3   56.29   13.00
   4   3  -3  213.58   15.80
   4   3  -3  221.38   14.10
   4   3  -3  220.88   21.20
   4   3  -3  226.38   17.30
   4   3  -3  216.18   17.40
  -4  -3   3  225.28   20.40
  -4  -3   3  250.27   16.90
  -4  -3   3  217.58   27.70
  -4  -3   3  224.18   18.60
   3   3  -3   79.59    8.80
   3   3  -3   89.09    7.70
   3   3  -3   74.99    8.30
   3   3  -3   86.59   10.00
   3   3  -3   84.49    9.00
  -3  -3   3  104.59   13.60
  -3  -3   3   76.89   11.50
  -3  -3   3   97.99   13.10
  -3  -3   3   95.19    8.10
  -3  -3   3   82.79   15.10
  -3  -3   3   97.29   11.80
   2   3  -3    2.00    3.00
   2   3  -3    1.50    3.60
  -2  -3   3   -0.20    3.90
  -2  -3   3   -0.20    4.80
  -2  -3   3    1.90    5.20
  -2  -3   3   -1.30    2.60
  -2  -3   3    0.90    4.00
   1   3  -3  383.26   24.90
   1   3  -3  416.76   25.70
  -1  -3   3  399.66   26.00
  -1  -3   3  402.06   26.30
  -1  -3   3  424.06   27.70
   0   3  -3  570.64   34.00
   0   3  -3  574.04   32.30
   0  -3   3  544.55   36.60
   0  -3   3  618.94   33.90
  -1   3  -3 2941.11  156.18
  -1   3  -3 2830.12  158.28
   1  -3   3 2957.20  161.58
   1  -3   3 2907.71  158.28
   1  -3   3 3134.59  159.58
  -2   3  -3  326.57   19.20
  -2   3  -3  342.17   23.20
  -2   3  -3  325.87   20.10
   2  -3   3  319.37   22.90
   2  -3   3  374.36   25.90
   2  -3   3  340.67   23.10
   2  -3   3  299.77   28.90
   2  -3   3  327.27   20.90
  -3   3  -3  497.15   28.40
  -3   3  -3  605.64   35.90
  -3   3  -3  490.55   29.60
  -3   3  -3  489.65   30.40
  -3   3  -3  461.95   28.30
   3  -3   3  525.85   34.30
   3  -3   3  496.35   30.40
   3  -3   3  523.35   29.50
   3  -3   3  480.05   43.90
  -4   3  -3  630.64   36.60
  -4   3  -3  607.34   34.60
   4  -3   3  665.53   36.00
   4  -3   3  566.44   41.90
   4  -3   3  585.74   53.99
  -5   3  -3    0.30    3.20
  -5   3  -3    6.40    3.20
   5  -3   3    6.00    3.80
   5  -3   3    4.20    2.30
   5  -3   3   12.40    9.20
   5  -3   3    5.70    4.80
  -6   3  -3   33.60    3.70
   6  -3   3   37.00    3.80
   6   2  -3   22.30    3.00
  -6  -2   3   26.10    4.20
   5   2  -3   89.29   10.30
   5   2  -3   78.49    7.90
  -5  -2   3   81.69    9.40
  -5  -2   3   58.39   14.60
  -5  -2   3   83.49   10.60
  -5  -2   3   92.69    8.50
  -5  -2   3  100.39   11.50
  -5  -2   3   91.39   15.40
   4   2  -3  319.57   22.00
   4   2  -3  314.37   19.70
   4   2  -3  300.47   21.10
  -4  -2   3  337.07   22.00
  -4  -2   3  376.36   32.80
  -4  -2   3  358.76   24.30
  -4  -2   3  324.67   31.10
   3   2  -3   44.80    5.40
   3   2  -3   63.49    6.30
   3   2  -3   51.29    6.90
   3   2  -3   50.79    7.00
   3   2  -3   48.50    7.30
  -3  -2   3   59.79    9.00
  -3  -2   3   44.30    8.10
  -3  -2   3   68.39   12.10
  -3  -2   3   23.60   10.70
  -3  -2   3   60.79    6.20
  -3  -2   3   45.60    7.90
   2   2  -3    1.00    3.70
   2   2  -3    4.00    3.80
  -2  -2   3    0.00    5.10
  -2  -2   3    3.00    3.50
  -2  -2   3    5.30    3.50
  -2  -2   3    3.10    3.30
  -2  -2   3   12.40    8.30
   1   2  -3 2880.51  156.08
   1   2  -3 2970.50  155.98
  -1  -2   3 2925.91  158.48
  -1  -2   3 2790.52  157.68
  -1  -2   3 3073.29  157.38
   0   2  -3 2640.54  144.89
   0   2  -3 2745.63  141.29
   0   2  -3 2644.74  140.59
   0  -2   3 2658.53  141.59
   0  -2   3 2599.04  144.19
  -1   2  -3 1030.10   55.59
   1  -2   3 1072.19   57.59
   1  -2   3 1055.99   57.79
   1  -2   3  981.10   59.69
  -2   2  -3    4.00    2.30
  -2   2  -3    4.50    4.40
  -2   2  -3    3.50    2.30
  -2   2  -3    5.10    1.70
   2  -2   3    1.80    2.90
   2  -2   3    7.20    6.70
   2  -2   3    4.50    6.00
   2  -2   3    7.70    5.10
  -3   2  -3   26.70    4.70
  -3   2  -3   16.10    4.70
  -3   2  -3   23.10    3.70
  -3   2  -3   28.10    5.80
  -3   2  -3   20.10    3.00
   3  -2   3   12.80    7.40
   3  -2   3    8.30    9.10
   3  -2   3   18.30    5.30
   3  -2   3   18.80    4.90
  -4   2  -3  372.16   24.10
  -4   2  -3  345.07   27.10
  -4   2  -3  371.46   22.30
  -4   2  -3  355.66   21.60
  -4   2  -3  376.36   21.50
  -4   2  -3  372.56   22.00
   4  -2   3  370.86   28.40
   4  -2   3  327.47   20.50
   4  -2   3  313.17   24.10
   4  -2   3  333.87   38.00
   4  -2   3  356.46   23.30
   4  -2   3  377.66   22.30
  -5   2  -3   62.79    6.20
   5  -2   3   77.19    9.40
   5  -2   3   81.09   10.20
   5  -2   3   81.89    5.90
   5  -2   3   53.79   11.10
  -6   2  -3    6.40    3.20
   6  -2   3    8.90    2.50
   6  -2   3    9.10    2.10
   6   1  -3  189.18   11.00
  -6  -1   3  193.88   11.90
  -6  -1   3  160.88   12.30
   5   1  -3  238.08   15.30
   5   1  -3  212.18   18.20
   5   1  -3  199.78   14.50
  -5  -1   3  225.48   17.70
  -5  -1   3  274.17   16.50
  -5  -1   3  231.58   14.90
  -5  -1   3  221.48   19.10
   4   1  -3  205.08   16.40
   4   1  -3  244.38   18.60
   4   1  -3  218.08   14.30
  -4  -1   3  236.38   23.70
  -4  -1   3  223.98   15.10
  -4  -1   3  191.68   15.10
  -4  -1   3  236.08   25.50
  -4  -1   3  222.28   19.10
  -4  -1   3  251.27   19.20
  -4  -1   3  235.18   18.20
   3   1  -3  375.36   22.90
   3   1  -3  330.27   23.00
   3   1  -3  410.96   22.40
   3   1  -3  377.16   22.90
   3   1  -3  389.96   26.50
  -3  -1   3  364.26   26.90
  -3  -1   3  346.37   22.80
  -3  -1   3  405.46   31.40
  -3  -1   3  384.86   24.40
  -3  -1   3  366.66   25.60
   2   1  -3  198.18   14.70
   2   1  -3  216.48   13.90
   2   1  -3  195.18   14.20
  -2  -1   3  222.48   20.50
  -2  -1   3  199.38   16.80
  -2  -1   3  217.18   19.90
  -2  -1   3  215.78   15.70
   1   1  -3  308.87   18.10
   1   1  -3  278.87   16.00
  -1  -1   3  221.38   18.20
  -1  -1   3  229.08   17.80
  -1  -1   3  323.07   18.90
   0   1  -3  826.62   46.10
   0   1  -3  745.83   42.10
   0   1  -3  824.22   42.80
   0  -1   3  655.73   44.60
   0  -1   3  847.52   43.90
  -1   1  -3   44.00    4.30
  -1   1  -3   47.20    8.70
  -1   1  -3   42.60    4.20
  -1   1  -3   33.30    4.10
   1  -1   3   41.10    5.00
   1  -1   3   54.29    6.60
   1  -1   3   39.20    7.00
  -2   1  -3    5.30    3.70
  -2   1  -3    3.00    3.50
  -2   1  -3    7.30    3.00
   2  -1   3    4.80    3.10
   2  -1   3    5.60    4.10
   2  -1   3    8.80    5.20
   2  -1   3   10.40    6.60
   2  -1   3   12.70    6.50
  -3   1  -3  205.48   15.80
  -3   1  -3  220.98   18.40
  -3   1  -3  234.58   15.20
  -3   1  -3  252.67   17.40
   3  -1   3  204.68   17.50
   3  -1   3  230.08   23.00
   3  -1   3  238.18   17.30
   3  -1   3  231.78   15.80
   3  -1   3  234.58   18.90
  -4   1  -3   -0.70    3.90
  -4   1  -3   -1.30    3.90
  -4   1  -3   -0.60    4.90
  -4   1  -3   -1.70    3.00
  -4   1  -3    1.50    2.70
  -4   1  -3    0.80    3.50
   4  -1   3   13.10    8.00
   4  -1   3    6.40    4.50
   4  -1   3    2.30    3.20
   4  -1   3    0.70    5.60
   4  -1   3   -1.00    5.70
   4  -1   3    1.50    2.30
  -5   1  -3  205.18   15.10
  -5   1  -3  205.58   13.90
  -5   1  -3  200.08   14.20
  -5   1  -3  214.98   14.50
   5  -1   3  226.38   14.80
   5  -1   3  218.68   13.20
  -6   1  -3    3.10    2.20
  -6   1  -3    2.30    2.20
   6  -1   3    1.80    1.70
   6  -1   3    2.70    3.20
   6   0  -3  225.08   13.30
  -6   0   3  215.78   13.70
   5   0  -3   13.40    4.30
   5   0  -3   13.10    4.40
   5   0  -3   25.20    7.00
  -5   0   3    8.30    6.70
  -5   0   3    6.70    4.20
  -5   0   3   15.90    4.10
  -5   0   3    6.30    4.20
   4   0  -3  356.56   25.40
   4   0  -3  351.96   21.30
   4   0  -3  343.37   22.40
   4   0  -3  323.37   33.00
  -4   0   3  336.37   23.20
  -4   0   3  395.56   33.90
  -4   0   3  371.56   25.10
  -4   0   3  363.76   21.50
  -4   0   3  353.76   31.50
  -4   0   3  345.57   24.10
  -4   0   3  345.57   22.30
  -4   0   3  309.47   26.80
  -4   0   3  305.57   27.30
   3   0  -3   11.30    3.80
   3   0  -3   34.00   11.00
   3   0  -3   21.30    4.90
   3   0  -3   17.50    3.00
   3   0  -3   30.00    4.60
  -3   0   3   15.60    4.20
  -3   0   3   13.40    4.00
  -3   0   3   16.30    6.70
  -3   0   3   37.70    9.80
  -3   0   3   27.80    5.00
  -3   0   3   19.20    5.60
   2   0  -3  300.27   21.80
   2   0  -3  290.27   21.40
  -2   0   3  316.97   23.00
  -2   0   3  338.47   24.60
  -2   0   3  299.97   20.30
  -2   0   3  315.77   20.20
  -2   0   3  318.07   19.80
   1   0  -3 1574.04   84.79
   1   0  -3 1496.05   80.99
  -1   0   3 1501.85   83.29
  -1   0   3 1539.55   84.59
  -1   0   3 1613.74   82.89
  -1   0   3 1448.96   84.79
  -1   0   3 1506.65   82.99
   0   0  -3  280.47   15.40
   0   0  -3  305.87   19.30
   0   0   3  231.98   15.80
   0   0   3  254.27   18.00
  -1   0  -3  657.53   36.00
  -1   0  -3  656.03   36.40
  -1   0  -3  675.83   40.90
   1   0   3  649.54   36.60
   1   0   3  659.73   38.80
   1   0   3  683.93   37.50
  -2   0  -3  462.55   25.70
  -2   0  -3  437.46   29.30
  -2   0  -3  418.76   32.20
  -2   0  -3  426.56   28.00
   2   0   3  444.26   27.50
   2   0   3  471.15   26.30
   2   0   3  399.96   30.50
   2   0   3  456.65   28.30
  -3   0  -3    1.60    4.80
  -3   0  -3    2.00    3.30
  -3   0  -3    4.00    2.80
  -3   0  -3    3.70    6.60
   3   0   3    0.00    3.10
   3   0   3   -0.70    3.20
   3   0   3    0.10    2.90
   3   0   3    7.70    7.20
  -4   0  -3   17.80    8.40
  -4   0  -3   28.30    6.60
  -4   0  -3   18.80    4.20
  -4   0  -3   24.20    5.00
  -4   0  -3   12.80    7.70
  -4   0  -3   19.10    3.40
   4   0   3   10.60    5.10
   4   0   3   16.70    5.80
   4   0   3   18.70    3.00
   4   0   3   18.10    7.90
   4   0   3   24.90    5.50
   4   0   3   19.00    4.30
  -5   0  -3  104.19   10.50
  -5   0  -3  120.49   16.80
  -5   0  -3  116.29    8.90
  -5   0  -3  106.09    9.90
   5   0   3  106.49    9.20
   5   0   3  112.79    8.00
  -6   0  -3   13.80    3.90
  -6   0  -3   25.50    5.20
   6   0   3   22.00    2.40
   6   0   3   26.10    3.30
   6  -1  -3   14.20    2.50
  -6   1   3   29.60    4.50
  -6   1   3   18.50    2.40
  -6   1   3   27.40    4.70
   5  -1  -3   89.19    8.80
   5  -1  -3   93.39    8.50
  -5   1   3   89.89   12.10
  -5   1   3   82.49    8.60
  -5   1   3  101.39    8.30
   4  -1  -3   86.69   17.70
   4  -1  -3   72.99    7.80
   4  -1  -3   71.09    9.20
   4  -1  -3   75.79   10.30
  -4   1   3   82.49   10.00
  -4   1   3   74.09   14.20
  -4   1   3   79.69    7.50
  -4   1   3   85.79   13.90
  -4   1   3   73.09    8.30
   3  -1  -3  214.88   19.00
   3  -1  -3  227.08   15.60
   3  -1  -3  243.38   17.80
   3  -1  -3  226.88   15.60
   3  -1  -3  244.38   19.90
   3  -1  -3  218.58   22.90
  -3   1   3  184.78   14.50
  -3   1   3  229.08   14.40
  -3   1   3  237.48   16.10
  -3   1   3  235.58   16.50
  -3   1   3  199.78   19.70
  -3   1   3  246.38   22.60
  -3   1   3  225.08   15.00
  -3   1   3  230.78   15.40
   2  -1  -3   33.20    6.30
   2  -1  -3   52.89    9.40
   2  -1  -3   51.99    6.80
   2  -1  -3   45.30    7.50
  -2   1   3   46.10    6.80
  -2   1   3   49.10   11.50
  -2   1   3   41.90    5.90
  -2   1   3   65.29    9.50
  -2   1   3   42.70   10.40
   1  -1  -3  109.09    8.20
   1  -1  -3   83.39   10.50
   1  -1  -3   82.59   10.60
  -1   1   3  106.69    8.10
  -1   1   3  130.89    9.20
  -1   1   3  125.19   10.30
  -1   1   3  113.39    8.70
   0  -1  -3 2993.00  153.98
   0   1   3 2884.61  149.99
   0   1   3 2964.70  152.88
   0   1   3 2500.65  150.98
  -1  -1  -3 2155.68  104.29
  -1  -1  -3 1990.60  101.29
  -1  -1  -3 1925.41  102.29
  -1  -1  -3 2096.69  106.99
   1   1   3 1775.12  105.39
   1   1   3 1733.33  104.19
   1   1   3 1813.62  101.89
  -2  -1  -3 1174.28   62.59
  -2  -1  -3 1082.09   67.89
  -2  -1  -3 1172.48   64.89
  -2  -1  -3 1185.48   69.89
   2   1   3 1119.79   62.49
   2   1   3 1180.98   65.09
   2   1   3 1187.08   66.29
  -3  -1  -3  625.34   36.00
  -3  -1  -3  601.84   43.20
  -3  -1  -3  648.84   40.00
  -3  -1  -3  632.84   36.80
  -3  -1  -3  637.94   35.80
  -3  -1  -3  638.34   37.10
   3   1   3  615.14   38.60
   3   1   3  654.93   42.50
   3   1   3  658.83   37.00
  -4  -1  -3   44.00    5.80
  -4  -1  -3   30.30    9.70
  -4  -1  -3   27.40    5.20
  -4  -1  -3   56.09    8.80
  -4  -1  -3   36.70    4.80
   4   1   3   39.10    4.40
   4   1   3   29.40    4.60
   4   1   3   46.10   10.70
   4   1   3   51.79    9.10
  -5  -1  -3  217.38   14.20
  -5  -1  -3  197.78   15.00
  -5  -1  -3  213.08   15.80
  -5  -1  -3  151.78   16.00
  -5  -1  -3  203.78   16.90
   5   1   3  217.28   13.40
   5   1   3  222.18   14.00
   5   1   3  219.58   16.10
  -6  -1  -3   33.90    4.10
  -6  -1  -3   27.10    4.70
  -6  -1  -3   29.40    4.20
   6   1   3   16.30    2.50
   6   1   3   34.50    3.40
   6   1   3   22.10    2.70
   6  -2  -3    3.10    1.70
   6  -2  -3    0.40    2.50
  -6   2   3    1.20    3.40
   5  -2  -3   34.80    6.00
   5  -2  -3   39.70    5.00
  -5   2   3   33.80    5.20
  -5   2   3   38.80    8.00
  -5   2   3   45.10    5.90
   4  -2  -3  332.37   21.00
   4  -2  -3  289.67   22.20
   4  -2  -3  298.07   28.30
   4  -2  -3  322.47   19.20
  -4   2   3  282.87   20.80
  -4   2   3  324.87   23.10
  -4   2   3  310.67   19.50
  -4   2   3  322.27   19.50
   3  -2  -3  318.17   29.20
   3  -2  -3  325.37   22.80
   3  -2  -3  337.37   25.90
   3  -2  -3  330.07   21.50
   3  -2  -3  322.17   25.60
   3  -2  -3  302.57   19.90
  -3   2   3  317.87   26.60
  -3   2   3  303.47   19.60
  -3   2   3  331.87   27.30
  -3   2   3  333.97   21.80
  -3   2   3  285.17   19.20
  -3   2   3  288.97   18.90
   2  -2  -3    2.20    3.30
   2  -2  -3    5.70    6.00
   2  -2  -3    6.60    6.40
   2  -2  -3   11.30    4.90
   2  -2  -3   11.70    7.40
  -2   2   3    1.00    5.60
  -2   2   3    4.60    2.10
   1  -2  -3  123.89   12.60
   1  -2  -3  114.99   13.00
   1  -2  -3  120.39    9.30
   1  -2  -3  125.49   10.80
  -1   2   3  121.89    9.40
  -1   2   3  105.29    8.20
  -1   2   3  111.79    6.80
  -1   2   3  118.49    8.40
   0  -2  -3  463.35   30.10
   0  -2  -3  486.75   27.20
   0   2   3  392.76   28.00
   0   2   3  506.65   28.40
   0   2   3  464.05   26.60
  -1  -2  -3   11.60    5.80
  -1  -2  -3   18.20    2.60
   1   2   3   12.60    3.70
   1   2   3   12.50    4.60
   1   2   3   26.00    6.00
  -2  -2  -3 1216.48   70.09
  -2  -2  -3 1270.37   66.29
  -2  -2  -3 1182.58   63.19
  -2  -2  -3 1064.89   68.99
   2   2   3 1174.48   63.79
   2   2   3 1075.49   65.09
   2   2   3 1180.18   62.09
  -3  -2  -3  912.21   63.69
  -3  -2  -3 1036.80   56.09
  -3  -2  -3 1074.29   59.89
  -3  -2  -3 1006.00   55.29
  -3  -2  -3 1015.40   56.29
   3   2   3  982.40   58.69
   3   2   3  988.90   55.09
   3   2   3  978.20   58.29
  -4  -2  -3  660.93   40.90
  -4  -2  -3  788.22   42.60
  -4  -2  -3  674.53   52.39
  -4  -2  -3  796.52   47.40
  -4  -2  -3  779.32   43.00
  -4  -2  -3  692.83   41.00
  -4  -2  -3  675.03   39.70
   4   2   3  713.03   44.40
   4   2   3  656.03   39.70
   4   2   3  734.43   40.20
   4   2   3  714.43   39.00
  -5  -2  -3  265.17   22.30
  -5  -2  -3  266.87   28.00
  -5  -2  -3  273.87   17.30
  -5  -2  -3  308.67   19.00
   5   2   3  275.57   16.60
   5   2   3  278.27   20.50
  -6  -2  -3  110.09    7.80
  -6  -2  -3  110.59    8.60
  -6  -2  -3  105.09    8.80
  -6  -2  -3  104.19    8.70
   6   2   3  112.39    7.50
   6  -3  -3   34.80    3.60
   5  -3  -3    9.10    5.50
   5  -3  -3    4.70    3.40
   5  -3  -3    2.70    4.30
  -5   3   3   10.20    4.20
  -5   3   3   11.30    6.00
   4  -3  -3  300.77   18.70
   4  -3  -3  288.17   20.70
   4  -3  -3  330.57   23.10
   4  -3  -3  306.17   28.30
   4  -3  -3  335.27   30.30
   4  -3  -3  294.87   31.20
  -4   3   3  317.07   21.30
  -4   3   3  309.47   22.40
  -4   3   3  300.27   20.90
  -4   3   3  261.27   18.20
  -4   3   3  306.57   28.90
  -4   3   3  288.87   18.90
   3  -3  -3  108.39   14.30
   3  -3  -3  104.69   16.30
   3  -3  -3  106.19   12.00
   3  -3  -3  120.19   10.40
   3  -3  -3  129.69   12.50
   3  -3  -3  102.89   20.30
  -3   3   3  116.89   10.90
  -3   3   3  103.29    9.00
  -3   3   3  128.39   16.00
  -3   3   3  115.49   10.60
  -3   3   3  118.19    8.60
  -3   3   3  105.39   10.50
  -3   3   3  131.69   11.30
   2  -3  -3 1079.29   65.39
   2  -3  -3 1143.49   68.99
   2  -3  -3 1090.09   62.69
   2  -3  -3 1132.19   63.89
   2  -3  -3 1153.78   70.79
  -2   3   3 1149.78   68.89
  -2   3   3 1184.58   63.19
   1  -3  -3 1807.02   97.09
   1  -3  -3 1637.34  100.89
   1  -3  -3 1686.03  101.39
   1  -3  -3 1884.01   98.59
  -1   3   3 1811.82   97.79
  -1   3   3 1930.51  102.09
  -1   3   3 1857.41   96.89
   0  -3  -3 1387.06   75.49
   0  -3  -3 1271.97   69.09
   0  -3  -3 1312.67   70.79
   0   3   3 1176.28   73.59
   0   3   3 1328.97   69.89
   0   3   3 1327.07   70.29
  -1  -3  -3 1007.60   55.29
  -1  -3  -3 1015.50   53.49
  -1  -3  -3  924.61   59.09
   1   3   3  986.10   59.39
   1   3   3 1018.10   55.79
  -2  -3  -3  405.66   26.50
  -2  -3  -3  397.66   26.50
  -2  -3  -3  352.56   27.10
   2   3   3  337.17   24.90
  -3  -3  -3  659.93   46.60
  -3  -3  -3  604.24   39.80
  -3  -3  -3  618.24   36.10
   3   3   3  619.64   38.70
   3   3   3  577.34   33.20
  -4  -3  -3 1680.83   99.69
  -4  -3  -3 1699.23   94.89
  -4  -3  -3 1783.92  110.29
  -4  -3  -3 1751.52   94.09
  -4  -3  -3 1654.63   93.89
  -4  -3  -3 1705.13   95.39
   4   3   3 1779.52   91.99
   4   3   3 1816.12   95.09
   4   3   3 1659.93   97.39
   4   3   3 1656.03   92.79
  -5  -3  -3   43.50    8.30
  -5  -3  -3   45.90   11.20
  -5  -3  -3   25.90    4.90
  -5  -3  -3   31.80    5.70
   5   3   3   37.50    4.30
   5   3   3   22.00    5.60
   5   3   3   34.10    7.60
   5   3   3   29.70    4.10
  -6  -3  -3  108.49    8.90
  -6  -3  -3  114.49    8.30
  -6  -3  -3   87.49    9.50
  -6  -3  -3  103.79    9.50
   6   3   3   96.99    7.00
   6   3   3   90.49    6.60
   5  -4  -3   23.80    5.30
   5  -4  -3    1.80   11.50
   5  -4  -3   19.90    7.20
  -5   4   3   21.60    3.60
   4  -4  -3  131.69   16.00
   4  -4  -3  149.69   23.20
   4  -4  -3  136.99   12.70
  -4   4   3  134.99   10.10
  -4   4   3  147.49   13.30
  -4   4   3  119.19   16.70
  -4   4   3  135.79   14.70
  -4   4   3  139.29   12.20
   3  -4  -3  179.08   14.90
   3  -4  -3  228.18   17.90
   3  -4  -3  231.58   23.60
   3  -4  -3  235.28   23.20
   3  -4  -3  209.08   26.50
  -3   4   3  204.88   15.30
  -3   4   3  224.58   16.70
  -3   4   3  198.78   13.40
  -3   4   3  193.28   21.80
  -3   4   3  227.48   16.60
  -3   4   3  201.88   14.50
  -3   4   3  217.78   17.80
   2  -4  -3 1072.69   66.39
   2  -4  -3 1046.40   61.69
   2  -4  -3 1079.19   59.89
   2  -4  -3  998.30   66.49
   2  -4  -3 1031.90   58.79
  -2   4   3  928.61   57.19
  -2   4   3 1087.99   65.29
  -2   4   3 1114.09   59.59
  -2   4   3 1064.99   58.19
  -2   4   3  929.91   56.29
  -2   4   3 1126.89   58.79
   1  -4  -3   43.50    8.70
   1  -4  -3   51.59    5.70
   1  -4  -3   51.29    8.50
   1  -4  -3   40.40    8.30
  -1   4   3   62.09    9.30
  -1   4   3   49.10    5.90
   0  -4  -3  473.95   27.10
   0  -4  -3  451.45   25.00
   0  -4  -3  448.96   31.70
   0  -4  -3  430.16   26.90
   0   4   3  445.66   26.30
   0   4   3  449.16   31.80
  -1  -4  -3  975.90   54.79
  -1  -4  -3  963.20   60.99
   1   4   3  921.21   55.09
   1   4   3 1038.70   60.69
  -2  -4  -3 1445.76   79.09
  -2  -4  -3 1444.46   81.49
  -2  -4  -3 1447.36   81.09
  -2  -4  -3 1363.36   85.49
  -2  -4  -3 1482.95   88.59
   2   4   3 1495.85   81.99
   2   4   3 1531.35   89.89
  -3  -4  -3   39.40   11.50
  -3  -4  -3   33.30    5.60
  -3  -4  -3   67.19   11.30
  -3  -4  -3   65.69   10.70
  -3  -4  -3   56.99    8.00
   3   4   3   44.50    4.00
   3   4   3   68.19    9.50
   3   4   3   44.50    6.20
   3   4   3   60.29    9.00
   3   4   3   39.80    4.80
  -4  -4  -3  214.68   16.50
  -4  -4  -3  218.18   18.10
  -4  -4  -3  199.88   23.40
  -4  -4  -3  235.78   16.00
  -4  -4  -3  203.98   18.30
   4   4   3  221.18   13.20
   4   4   3  220.38   13.70
   4   4   3  207.08   16.00
   4   4   3  232.58   18.20
   4   4   3  212.88   18.30
  -5  -4  -3  325.97   29.70
  -5  -4  -3  348.07   23.10
  -5  -4  -3  342.77   24.80
  -5  -4  -3  394.16   22.60
  -5  -4  -3  337.37   25.30
   5   4   3  407.06   21.50
   5   4   3  366.06   20.30
   5   4   3  339.97   23.30
   5   4   3  357.26   21.90
  -6  -4  -3    8.20    3.70
  -6  -4  -3    7.90    3.90
  -6  -4  -3    3.40    3.60
  -6  -4  -3    4.30    4.40
   6   4   3    3.40    2.70
   6   4   3    5.20    2.20
   6   4   3    5.90    1.90
   5  -5  -3   15.90   11.70
   5  -5  -3    2.50    4.30
  -5   5   3    3.70    1.30
  -5   5   3    2.00    3.30
   4  -5  -3  550.64   31.80
   4  -5  -3  473.45   33.60
   4  -5  -3  475.15   38.10
  -4   5   3  477.05   31.60
  -4   5   3  639.04   41.80
  -4   5   3  445.56   29.80
  -4   5   3  570.74   41.20
  -4   5   3  506.05   32.30
   3  -5  -3   30.50    5.60
   3  -5  -3   39.40   12.50
   3  -5  -3   39.00    7.50
   3  -5  -3   28.20   12.70
   3  -5  -3   37.50   12.70
  -3   5   3   34.50    4.60
  -3   5   3   29.10    6.60
  -3   5   3   35.20    7.20
  -3   5   3   26.40    8.30
  -3   5   3   21.30    6.00
  -3   5   3   26.20    8.60
  -3   5   3   31.60    7.50
   2  -5  -3    8.20    7.80
   2  -5  -3   12.00    4.50
   2  -5  -3    6.80    5.60
   2  -5  -3    6.30    5.80
   2  -5  -3   18.10    3.10
   2  -5  -3   14.00    4.10
  -2   5   3   11.50    4.80
  -2   5   3   16.70    3.40
  -2   5   3   12.20    4.90
  -2   5   3   12.30    2.20
  -2   5   3   16.70    4.00
  -2   5   3    9.30    4.30
  -2   5   3   18.60    8.10
   1  -5  -3  469.75   34.90
   1  -5  -3  445.56   29.80
   1  -5  -3  449.76   27.80
   1  -5  -3  478.05   34.20
   1  -5  -3  481.55   28.70
  -1   5   3  480.15   27.70
  -1   5   3  465.05   33.80
  -1   5   3  448.86   27.80
  -1   5   3  554.14   29.80
   0  -5  -3  185.78   18.90
   0  -5  -3  175.08   13.30
   0   5   3  187.08   18.50
   0   5   3  162.78   12.20
  -1  -5  -3  192.88   19.50
  -1  -5  -3  187.58   13.90
   1   5   3  190.78   19.90
   1   5   3  183.88   14.80
  -2  -5  -3   21.80    6.40
  -2  -5  -3   10.90    3.90
  -2  -5  -3   14.70    6.40
  -2  -5  -3    7.70    7.60
  -2  -5  -3   21.80    6.20
   2   5   3    4.30    8.50
   2   5   3    9.50    3.20
   2   5   3    4.40    4.00
   2   5   3   15.60    5.20
   2   5   3    6.20    2.00
  -3  -5  -3   26.40   11.40
  -3  -5  -3   20.80    5.70
  -3  -5  -3    9.90    8.00
  -3  -5  -3   26.10    4.10
  -3  -5  -3   13.90    7.80
   3   5   3   23.10    6.20
   3   5   3   13.60    5.50
   3   5   3   24.10    2.90
   3   5   3   24.00    3.50
   3   5   3   20.80    7.70
   3   5   3   21.00    3.40
  -4  -5  -3   -4.30    5.60
  -4  -5  -3    3.80    4.70
  -4  -5  -3    3.10    3.70
  -4  -5  -3    5.50   10.20
  -4  -5  -3   -2.60    3.30
   4   5   3   -1.70    4.90
   4   5   3    4.80    7.30
   4   5   3    2.00    2.00
   4   5   3    0.90    5.60
   4   5   3    0.80    2.20
  -5  -5  -3   94.39    9.50
  -5  -5  -3  109.39   14.70
  -5  -5  -3  107.79   17.20
  -5  -5  -3  101.79   10.60
  -5  -5  -3  102.19    9.20
   5   5   3  100.19    8.20
   5   5   3  105.49    6.70
   5   5   3  106.49   10.20
   5   5   3   96.69    7.50
   5   5   3  101.79   11.30
  -6  -5  -3   13.00    3.90
  -6  -5  -3   16.70    2.90
  -6  -5  -3   15.20    3.00
   6   5   3   12.60    1.90
   6   5   3   19.40    2.20
   5  -6  -3   22.80    4.70
   5  -6  -3   38.70    4.30
  -5   6   3   28.70    2.40
   4  -6  -3  227.98   15.80
   4  -6  -3  208.58   25.70
  -4   6   3  190.48   17.80
  -4   6   3  228.18   15.80
  -4   6   3  221.38   13.10
  -4   6   3  204.88   17.20
   3  -6  -3  138.59   11.10
   3  -6  -3  132.79   20.30
   3  -6  -3  122.89   14.70
  -3   6   3  133.19   13.50
  -3   6   3  137.99   17.20
  -3   6   3  129.69   10.80
  -3   6   3  124.09    8.50
  -3   6   3  127.99   12.10
  -3   6   3  134.99   13.40
   2  -6  -3   38.20    7.40
   2  -6  -3   28.40   11.00
   2  -6  -3   31.20    9.40
   2  -6  -3   39.20   10.60
   2  -6  -3   55.99    7.10
  -2   6   3   49.70    5.00
  -2   6   3   58.69    8.70
  -2   6   3   49.40   12.20
  -2   6   3   49.10    7.00
  -2   6   3   46.00   11.70
  -2   6   3   51.19    7.00
   1  -6  -3   51.09   10.30
   1  -6  -3   59.69    7.40
   1  -6  -3   56.89    7.00
   1  -6  -3   55.99    9.20
  -1   6   3   66.89    6.60
  -1   6   3   66.19   10.00
  -1   6   3   68.09    8.20
  -1   6   3   79.29   11.90
  -1   6   3   88.99   14.10
  -1   6   3   75.49    6.40
   0  -6  -3  152.38   18.90
   0  -6  -3  155.78   12.40
   0   6   3  168.18   14.60
   0   6   3  160.08   11.10
   0   6   3  159.58   11.90
   0   6   3  145.09   11.00
   0   6   3  167.28   18.40
   0   6   3  178.78   13.20
   0   6   3  173.48   12.60
  -1  -6  -3   13.60    6.00
  -1  -6  -3   14.20    3.10
  -1  -6  -3   20.10    5.00
   1   6   3   14.50    7.60
   1   6   3   16.80    3.70
   1   6   3   15.50    2.80
   1   6   3   16.60    4.30
   1   6   3   22.00    5.90
   1   6   3   17.60    5.70
  -2  -6  -3   18.70    3.60
  -2  -6  -3   20.80    6.70
  -2  -6  -3   24.00   10.10
  -2  -6  -3    7.50    6.10
   2   6   3   25.70    3.70
   2   6   3   26.60   12.60
   2   6   3   18.40    6.60
   2   6   3   19.40    6.90
   2   6   3   15.30    4.20
   2   6   3   19.70    4.00
  -3  -6  -3   -2.10    4.50
  -3  -6  -3    0.30    7.80
  -3  -6  -3   -1.00    4.10
   3   6   3    1.10    3.90
   3   6   3    2.40    5.80
   3   6   3   -1.00    4.00
   3   6   3   -3.20    3.00
   3   6   3   -1.80    2.80
   3   6   3    1.50    7.10
   3   6   3    2.40    1.20
  -4  -6  -3  148.59   12.20
  -4  -6  -3  137.49   14.50
  -4  -6  -3  110.99   19.30
  -4  -6  -3  110.39   14.10
   4   6   3  160.78    9.90
   4   6   3  147.29   13.50
   4   6   3  127.89   13.10
   4   6   3  132.19   10.50
  -5  -6  -3   51.59    6.10
  -5  -6  -3   51.29    9.90
  -5  -6  -3   38.40    5.00
  -5  -6  -3   46.90    8.90
  -5  -6  -3   44.70    6.70
   5   6   3   50.29    5.30
   5   6   3   41.60    4.80
   5   6   3   37.50    5.40
   4  -7  -3    7.30    9.90
   4  -7  -3    3.50    2.80
   4  -7  -3    2.50    4.30
  -4   7   3   -1.80    5.70
  -4   7   3    4.50    4.50
  -4   7   3    1.50    5.00
   3  -7  -3  158.08   15.90
   3  -7  -3  151.18   20.40
   3  -7  -3  174.58   12.10
  -3   7   3  149.88   11.90
  -3   7   3  163.88   15.00
  -3   7   3  160.38   12.50
  -3   7   3  150.08   15.20
   2  -7  -3   32.50   10.20
   2  -7  -3   34.10    6.80
  -2   7   3   34.20    7.30
  -2   7   3   42.10   10.40
  -2   7   3   28.90    4.90
  -2   7   3   42.70    9.80
  -2   7   3   28.60    5.00
   1  -7  -3    2.00    5.40
   1  -7  -3    3.90    3.30
   1  -7  -3    0.20    4.90
  -1   7   3    0.30    4.30
  -1   7   3    0.90    6.00
  -1   7   3    3.10    5.70
  -1   7   3    0.00    3.60
  -1   7   3   -4.20    5.50
  -1   7   3    0.50    4.80
   0  -7  -3  201.28   15.30
   0  -7  -3  182.88   21.60
   0   7   3  182.28   13.00
   0   7   3  201.28   14.30
   0   7   3  232.08   23.20
   0   7   3  180.18   13.80
   0   7   3  191.88   15.50
   0   7   3  206.58   16.40
   0   7   3  185.28   12.90
  -1  -7  -3   74.89    8.20
  -1  -7  -3   79.29   13.20
   1   7   3   83.39   13.00
   1   7   3   81.59    7.90
   1   7   3   70.29    8.30
   1   7   3   78.19    8.40
   1   7   3   80.89   17.70
   1   7   3   73.19    9.40
   1   7   3   68.69    6.50
  -2  -7  -3  120.19   13.80
  -2  -7  -3  178.48   22.10
  -2  -7  -3  156.08   11.80
  -2  -7  -3  148.49   12.00
   2   7   3  152.38   10.30
   2   7   3  172.98   12.20
   2   7   3  156.18   14.70
   2   7   3  154.68   12.50
   2   7   3  165.58   15.20
   2   7   3  151.48   11.70
  -3  -7  -3  217.88   16.20
  -3  -7  -3  210.68   15.10
  -3  -7  -3  194.38   19.70
   3   7   3  216.28   18.30
   3   7   3  213.78   15.60
   3   7   3  224.88   19.40
   3   7   3  224.28   14.10
   3   7   3  209.68   15.00
  -4  -7  -3    6.60    8.00
  -4  -7  -3    1.50    2.00
  -4  -7  -3    3.90    4.50
  -4  -7  -3    2.80    2.00
   4   7   3    7.10    6.00
   4   7   3    5.20    2.70
   4   7   3    3.70    2.30
   4   7   3    4.90    5.30
  -5  -7  -3   40.70    8.30
  -5  -7  -3   42.30    5.70
  -5  -7  -3   45.50    9.20
   5   7   3   35.10    4.00
   5   7   3   50.79    6.00
   4  -8  -3    9.30    5.30
  -4   8   3   14.10    3.80
  -4   8   3    7.20    3.40
  -4   8   3    3.70    2.70
   3  -8  -3    2.30    3.50
   3  -8  -3    4.90   15.40
  -3   8   3   -0.90    5.20
  -3   8   3    2.40    2.50
  -3   8   3    4.00    4.70
  -3   8   3   -0.80    6.30
   2  -8  -3  262.17   24.20
   2  -8  -3  264.67   20.50
  -2   8   3  371.66   30.60
  -2   8   3  328.57   20.10
  -2   8   3  284.27   27.10
  -2   8   3  310.07   22.10
  -2   8   3  337.27   19.60
   1  -8  -3    5.10    3.30
   1  -8  -3    5.50    5.90
  -1   8   3   -1.60    7.20
  -1   8   3   13.20    3.60
  -1   8   3   16.80    7.70
  -1   8   3   10.60    5.30
  -1   8   3    1.40    6.60
  -1   8   3   11.60    8.50
   0  -8  -3  111.29   11.90
   0   8   3  145.69   15.70
   0   8   3  141.19   10.70
   0   8   3  152.68   19.50
   0   8   3  125.99   14.30
   0   8   3  129.19   10.50
   0   8   3  134.89   13.00
  -1  -8  -3  312.17   22.70
   1   8   3  335.37   21.40
   1   8   3  345.67   23.80
   1   8   3  342.57   32.90
   1   8   3  345.57   21.30
   1   8   3  345.27   23.80
   1   8   3  359.56   22.80
   1   8   3  328.07   23.30
   1   8   3  368.36   21.00
  -2  -8  -3    3.50    3.60
   2   8   3    3.10    2.50
   2   8   3    7.40    3.40
   2   8   3    6.80    4.50
   2   8   3   10.50    3.90
   2   8   3    3.90    3.70
   2   8   3    8.90    6.50
  -3  -8  -3    0.90    2.30
  -3  -8  -3   -0.20    4.70
  -3  -8  -3   -0.20    5.60
   3   8   3    2.90    5.60
   3   8   3   -2.60    3.30
   3   8   3   -1.90    2.90
   3   8   3    1.60    5.90
  -4  -8  -3  153.28   13.60
  -4  -8  -3  131.89   14.90
  -4  -8  -3  168.28   11.60
   4   8   3  123.09    9.90
   4   8   3  170.18   11.50
   4   8   3  153.68   12.70
   4   8   3  170.48    9.90
   3  -9  -3   16.50    4.70
   3  -9  -3   20.90    6.40
  -3   9   3   12.10    5.00
  -3   9   3   14.90    4.00
  -3   9   3   12.60    5.60
   2  -9  -3   82.09   11.60
   2  -9  -3   92.39    9.80
  -2   9   3   96.99    9.90
  -2   9   3  118.79    8.90
  -2   9   3  114.29    8.40
  -2   9   3   99.79   11.30
   1  -9  -3   81.09    9.80
  -1   9   3   75.89    9.20
  -1   9   3   83.39    7.80
  -1   9   3   83.89   10.00
  -1   9   3   61.89   10.50
   0   9   3  168.88   11.30
   0   9   3  144.69   14.60
   0   9   3  160.58   11.40
   0   9   3  153.38   13.80
   0   9   3  150.18   13.80
   1   9   3    7.50    5.10
   1   9   3    9.20    4.60
   1   9   3   11.00    5.00
   1   9   3    4.40    7.30
   1   9   3   10.70    3.60
  -2  -9  -3   -0.60    4.90
   2   9   3    3.40    7.30
   2   9   3   -0.50    3.90
   2   9   3    0.00    3.10
   2   9   3   -2.40    3.70
  -3  -9  -3   15.40    5.40
  -3  -9  -3   18.30    3.90
   3   9   3   12.10    3.20
   3   9   3    8.70    5.10
   3   9   3    9.50    2.80
   3   9   3    9.30    5.50
  -4  -9  -3   37.40    4.50
   4   9   3   44.20    5.40
   4   9   3   34.20    3.40
   4   9   3   39.50    6.10
  -2  10   3   -2.40    4.20
  -2  10   3   -1.60    4.00
  -2  10   3    0.20    1.00
  -2  10   3   -1.50    4.00
  -1  10   3   91.79    7.20
  -1  10   3  121.39    8.50
  -1  10   3   98.39   10.40
  -1  10   3  109.89   11.50
   0  10   3   74.19    8.50
   0  10   3   81.29    8.80
   0  10   3   72.69    9.00
   0  10   3  105.19    7.00
   0  10   3  105.29    7.60
   1  10   3   39.30    5.60
   1  10   3   46.20    5.10
   1  10   3   44.30    5.40
   1  10   3   26.20    8.60
   1  10   3   41.70    4.40
   2  10   3    2.10    2.10
   2  10   3   -2.40    3.90
   2  10   3    4.70    4.50
   2  10   3   -1.70    3.00
   3  10   3   -0.20    4.80
   3  10   3    2.00    2.90
   3  10   3    0.00    2.20
   0  11   3    6.70    2.20
   0  11   3    5.50    1.90
   1  11   3   18.50    2.30
   1  11   3   22.40    2.90
   2   9  -4   70.69    6.00
   2   9  -4   60.79    6.90
   1   9  -4    8.90    2.80
   1   9  -4    8.90    2.90
   0   9  -4   47.70    4.50
   0   9  -4   30.10    7.20
   0   9  -4   65.89   10.00
  -1   9  -4   11.40    3.80
  -1   9  -4    3.50    4.90
  -2   9  -4   18.00    3.60
  -2   9  -4   16.10    5.20
   2  -9   4   13.60    2.60
   3   8  -4    3.60    3.20
   3   8  -4   -0.80    2.70
   3   8  -4   -1.40    2.40
  -3  -8   4    1.10    3.30
   2   8  -4   24.40    4.80
   2   8  -4   26.30    5.80
   2   8  -4   20.50    4.50
  -2  -8   4   28.50    5.20
  -2  -8   4   20.60    6.80
   1   8  -4    8.20    5.20
   1   8  -4   14.10    4.00
   1   8  -4    4.80    4.90
  -1  -8   4    9.40    4.20
  -1  -8   4   11.00    4.50
   0   8  -4   55.29   10.60
   0   8  -4   63.09    7.60
   0  -8   4   51.99    7.10
   0  -8   4   52.49    8.70
  -1   8  -4   17.90    5.50
  -1   8  -4   14.30    9.60
  -1   8  -4   22.50    3.90
   1  -8   4   12.50    4.70
  -2   8  -4   13.00    3.30
  -2   8  -4    5.50    5.60
  -2   8  -4    8.20    6.10
   2  -8   4    5.30    5.80
   2  -8   4    5.20    4.20
  -3   8  -4   92.39   10.90
  -3   8  -4  109.59    8.50
  -3   8  -4  126.99    7.90
   3  -8   4  101.59   10.00
   4   7  -4   33.10    5.30
   4   7  -4   53.49    5.60
  -4  -7   4   38.50    6.30
   3   7  -4    8.70    6.90
   3   7  -4    7.50    3.60
   3   7  -4    8.60    4.60
  -3  -7   4    9.80    5.70
  -3  -7   4   10.90    7.60
   2   7  -4    5.80    3.40
   2   7  -4    1.00    4.80
   2   7  -4    1.60    5.40
  -2  -7   4   -3.00    4.20
  -2  -7   4    3.30    3.60
  -2  -7   4    2.30    7.50
   1   7  -4   12.00    7.90
   1   7  -4   15.60    3.70
   1   7  -4    9.30    5.90
   1   7  -4   10.40    5.70
   1   7  -4   13.20    7.10
  -1  -7   4    6.00    6.40
  -1  -7   4   11.00    4.60
   0   7  -4   11.20    7.30
   0   7  -4   11.10    5.40
   0   7  -4   16.90    4.00
   0   7  -4   11.20    5.10
   0  -7   4   14.40    4.70
  -1   7  -4  205.68   12.90
  -1   7  -4  160.28   16.30
  -1   7  -4  180.08   18.30
  -1   7  -4  211.78   14.90
   1  -7   4  167.08   14.10
   1  -7   4  170.68   17.40
  -2   7  -4   10.10    3.70
  -2   7  -4   12.40    9.30
  -2   7  -4   11.00    4.80
   2  -7   4   10.80    5.00
   2  -7   4    6.60    6.50
  -3   7  -4   37.00    9.40
  -3   7  -4   56.19    5.50
  -3   7  -4   38.80    7.40
   3  -7   4   51.79    4.40
   3  -7   4   47.10    6.80
   3  -7   4   73.19   18.80
  -4   7  -4  104.29    8.10
  -4   7  -4  112.79    7.60
   4  -7   4  103.39   13.80
   4  -7   4  114.69    7.30
   4  -7   4  116.19    9.90
   4   6  -4  111.19    9.40
   4   6  -4  104.39    8.40
   4   6  -4   81.29   11.40
  -4  -6   4   92.49   12.50
  -4  -6   4  102.19    8.00
  -4  -6   4   79.19   12.80
   3   6  -4   32.20    7.60
   3   6  -4   20.20    6.40
   3   6  -4   30.90    5.50
  -3  -6   4   21.30    6.50
  -3  -6   4   20.30   12.20
  -3  -6   4   14.40    6.90
  -3  -6   4   32.00    4.90
   2   6  -4  113.19   12.40
   2   6  -4  120.89   13.20
   2   6  -4  129.79   11.40
   2   6  -4  112.99    8.10
   2   6  -4  126.09   13.30
  -2  -6   4  105.49   18.30
  -2  -6   4  108.19   12.90
  -2  -6   4  121.79   14.50
   1   6  -4   12.00    6.70
   1   6  -4   13.80    4.00
   1   6  -4   11.00    4.70
   1   6  -4   12.00    7.60
   1   6  -4   14.30    8.70
  -1  -6   4    9.10    4.90
  -1  -6   4    9.20    4.40
  -1  -6   4   11.00    7.90
   0   6  -4  250.87   16.70
   0   6  -4  255.17   16.20
   0   6  -4  228.48   19.20
   0   6  -4  250.57   15.70
   0   6  -4  239.28   20.70
   0  -6   4  293.47   24.50
   0  -6   4  214.48   20.30
   0  -6   4  225.18   17.00
  -1   6  -4   20.90    7.10
  -1   6  -4   16.20    6.50
  -1   6  -4   20.50    7.60
  -1   6  -4   23.60    5.10
  -1   6  -4   12.60    3.90
   1  -6   4   37.60   13.50
   1  -6   4   16.40    6.80
   1  -6   4   17.60    4.80
   1  -6   4   23.20    7.10
  -2   6  -4  227.48   15.20
  -2   6  -4  183.48   19.00
  -2   6  -4  238.78   12.70
  -2   6  -4  239.28   16.40
  -2   6  -4  234.08   20.90
   2  -6   4  218.08   17.10
   2  -6   4  237.18   14.70
   2  -6   4  204.58   20.00
  -3   6  -4   -3.60    7.90
  -3   6  -4   -0.40    4.50
  -3   6  -4   -1.90    1.30
  -3   6  -4    1.40    3.40
   3  -6   4   -1.30    2.00
   3  -6   4    4.30    6.60
   3  -6   4    2.40    5.80
  -4   6  -4   70.79    4.20
  -4   6  -4   80.29    6.60
  -4   6  -4   45.90    8.40
  -4   6  -4   69.29    7.60
   4  -6   4   58.19   11.50
   4  -6   4   68.29    8.40
   4  -6   4   84.09    7.20
   5   5  -4    8.00    5.20
   5   5  -4   12.10    1.30
  -5  -5   4    7.70    5.00
  -5  -5   4    9.50    2.40
   4   5  -4  300.17   16.00
   4   5  -4  315.07   18.70
   4   5  -4  269.97   20.90
   4   5  -4  268.67   16.50
   4   5  -4  281.87   18.70
  -4  -5   4  280.37   22.80
  -4  -5   4  249.08   25.80
  -4  -5   4  317.87   18.90
  -4  -5   4  258.67   20.10
   3   5  -4   85.29   10.40
   3   5  -4   88.29    6.90
   3   5  -4  111.19   12.00
   3   5  -4  105.69    7.10
   3   5  -4  116.79   14.60
  -3  -5   4   84.89   12.30
  -3  -5   4  127.89   10.20
   2   5  -4  126.09   13.00
   2   5  -4  114.79   10.90
   2   5  -4  111.09   10.70
   2   5  -4  141.39   11.30
   2   5  -4  115.89   11.90
  -2  -5   4  122.69   17.30
  -2  -5   4  105.79   12.30
  -2  -5   4   98.09    8.90
  -2  -5   4   88.99   12.50
  -2  -5   4  121.69   12.50
   1   5  -4   26.80    5.90
   1   5  -4   29.70    3.40
   1   5  -4   40.60    8.70
   1   5  -4   31.00    7.40
   1   5  -4   23.80    6.00
   1   5  -4   30.80    5.70
  -1  -5   4   26.10    8.50
  -1  -5   4   31.30    5.90
  -1  -5   4   34.70   10.00
   0   5  -4  179.98   12.60
   0   5  -4  169.08   12.10
   0   5  -4  194.48   15.80
   0   5  -4  201.98   16.30
   0   5  -4  165.28   11.80
   0  -5   4  170.88   15.80
   0  -5   4  173.48   15.30
   0  -5   4  220.38   21.00
  -1   5  -4  483.05   27.00
  -1   5  -4  463.05   26.90
  -1   5  -4  490.05   28.00
  -1   5  -4  495.45   25.40
  -1   5  -4  443.46   30.90
  -1   5  -4  476.45   30.80
   1  -5   4  450.25   28.00
   1  -5   4  406.16   29.60
   1  -5   4  426.06   42.40
  -2   5  -4  254.17   17.30
  -2   5  -4  264.47   16.70
  -2   5  -4  260.27   17.00
  -2   5  -4  246.18   15.60
  -2   5  -4  254.97   21.10
  -2   5  -4  250.47   14.70
  -2   5  -4  274.77   21.70
   2  -5   4  232.68   20.40
   2  -5   4  249.18   17.80
   2  -5   4  219.98   30.60
   2  -5   4  257.57   15.90
  -3   5  -4   20.60    3.00
  -3   5  -4   18.10    4.60
  -3   5  -4   17.90    6.80
  -3   5  -4   21.80    4.60
  -3   5  -4   21.40    5.70
   3  -5   4   17.20    3.80
   3  -5   4   17.30    9.30
   3  -5   4   15.20    5.30
  -4   5  -4   33.50    5.30
  -4   5  -4   25.20    6.70
  -4   5  -4   22.70    8.00
  -4   5  -4   26.80    3.90
   4  -5   4   30.90    5.10
   4  -5   4   39.10    7.80
   4  -5   4   46.60   10.50
  -5   5  -4   16.40    2.20
  -5   5  -4   22.90    3.40
   5  -5   4   24.60    3.30
   5  -5   4   19.80    5.00
   5   4  -4   56.79    4.40
   5   4  -4   56.19    4.00
  -5  -4   4   35.30   14.90
  -5  -4   4   53.89    5.80
  -5  -4   4   41.90   17.00
   4   4  -4   70.19    8.00
   4   4  -4   81.69   13.10
   4   4  -4   67.49    7.70
   4   4  -4   74.39    6.60
  -4  -4   4   67.69   18.00
  -4  -4   4   67.99    8.30
  -4  -4   4   63.69   10.70
  -4  -4   4   72.79   10.40
   3   4  -4  325.77   18.80
   3   4  -4  327.47   21.70
   3   4  -4  337.37   20.90
   3   4  -4  341.17   23.30
  -3  -4   4  292.77   23.70
  -3  -4   4  300.07   24.90
  -3  -4   4  310.37   20.50
  -3  -4   4  310.37   26.60
  -3  -4   4  273.67   28.80
   2   4  -4   41.60    7.20
   2   4  -4   40.30    6.80
   2   4  -4   49.10    6.90
   2   4  -4   41.20    4.60
  -2  -4   4   33.60   11.30
  -2  -4   4   39.60    5.60
  -2  -4   4   48.50    9.80
  -2  -4   4   41.00    8.80
  -2  -4   4   47.30    8.00
  -2  -4   4   40.00    7.90
   1   4  -4   37.50    8.30
   1   4  -4   26.40    3.10
   1   4  -4   23.30    5.50
   1   4  -4   27.70    5.10
  -1  -4   4   18.70    6.80
  -1  -4   4   34.60    8.60
  -1  -4   4   26.00    5.30
   0   4  -4  159.58   13.80
   0   4  -4  144.99   10.40
   0   4  -4  161.48   11.20
   0  -4   4  161.78   11.70
   0  -4   4  179.28   18.00
   0  -4   4  163.48   14.40
  -1   4  -4   63.89    8.40
  -1   4  -4   59.69    7.70
  -1   4  -4   51.69    5.60
  -1   4  -4   65.59    6.10
  -1   4  -4   69.29   12.30
  -1   4  -4   57.19    4.50
   1  -4   4   51.29    9.00
   1  -4   4   62.69    9.60
   1  -4   4   69.09   11.10
   1  -4   4   58.29    7.20
  -2   4  -4  332.57   22.70
  -2   4  -4  314.97   19.10
  -2   4  -4  301.27   19.60
  -2   4  -4  301.27   18.40
  -2   4  -4  305.57   20.10
  -2   4  -4  321.57   23.60
  -2   4  -4  333.97   20.60
   2  -4   4  321.77   34.50
   2  -4   4  340.87   19.80
   2  -4   4  321.77   25.80
   2  -4   4  308.67   20.40
   2  -4   4  332.47   25.20
  -3   4  -4   39.80    6.70
  -3   4  -4   33.00    8.50
  -3   4  -4   46.10    5.10
  -3   4  -4   44.60    5.90
  -3   4  -4   55.19    8.70
   3  -4   4   42.90   10.70
   3  -4   4   47.80    8.20
   3  -4   4   49.70   15.10
   3  -4   4   41.20    5.20
  -4   4  -4  165.58   12.60
  -4   4  -4  141.39   14.00
  -4   4  -4  122.49   19.80
  -4   4  -4  156.88   11.50
   4  -4   4  168.28   20.60
   4  -4   4  170.28   16.30
   4  -4   4  177.88   12.00
  -5   4  -4   14.60    2.70
  -5   4  -4    9.20    3.80
  -5   4  -4   19.20    4.10
   5  -4   4   21.90    3.70
   5  -4   4    9.70    9.50
   5  -4   4   18.10    6.50
   5   3  -4  163.38    9.90
   5   3  -4  137.99   12.90
  -5  -3   4  161.68   14.70
  -5  -3   4  164.28   12.10
  -5  -3   4  191.78   21.40
  -5  -3   4  125.19   18.90
  -5  -3   4  146.09   12.70
   4   3  -4    1.50    4.70
   4   3  -4    3.50    3.90
   4   3  -4    0.30    3.50
   4   3  -4    5.00    4.10
  -4  -3   4    5.70   13.60
  -4  -3   4   -0.10    4.20
  -4  -3   4    2.40    6.80
  -4  -3   4    1.50    7.70
  -4  -3   4    2.00    6.40
   3   3  -4   13.80    5.60
   3   3  -4   10.00    4.30
  -3  -3   4    1.30   10.90
  -3  -3   4    8.70    6.90
  -3  -3   4    9.60    5.20
  -3  -3   4   10.20    4.30
  -3  -3   4   12.90    6.50
  -3  -3   4    8.90    5.40
   2   3  -4    0.60    3.60
   2   3  -4    2.10    4.20
   2   3  -4    2.50    1.80
  -2  -3   4    4.90    3.50
  -2  -3   4    2.60    3.50
  -2  -3   4    2.40    4.00
  -2  -3   4    3.90    2.30
  -2  -3   4   -1.10    7.50
  -2  -3   4    2.20    3.60
   1   3  -4   35.80    5.90
  -1  -3   4   41.00    6.00
  -1  -3   4   46.40    6.20
  -1  -3   4   44.00    8.50
  -1  -3   4   33.20    8.60
   0   3  -4 2377.56  133.99
   0   3  -4 2531.95  132.29
   0  -3   4 2434.36  134.69
   0  -3   4 2395.36  132.79
   0  -3   4 2710.33  139.29
  -1   3  -4   53.19    5.70
  -1   3  -4   56.39    8.10
   1  -3   4   57.89    9.00
   1  -3   4   64.39   10.00
   1  -3   4   60.59    8.30
   1  -3   4   65.69    7.30
  -2   3  -4  232.48   16.00
  -2   3  -4  221.78   15.50
  -2   3  -4  247.38   14.90
  -2   3  -4  250.37   18.70
  -2   3  -4  256.17   19.30
  -2   3  -4  256.27   15.50
   2  -3   4  253.37   19.30
   2  -3   4  267.97   16.70
   2  -3   4  242.48   21.00
   2  -3   4  246.88   19.20
   2  -3   4  276.17   30.10
  -3   3  -4  485.95   31.20
  -3   3  -4  562.04   31.80
  -3   3  -4  503.75   29.60
  -3   3  -4  487.85   29.10
  -3   3  -4  535.75   33.10
   3  -3   4  520.35   31.40
   3  -3   4  536.35   30.50
   3  -3   4  519.15   35.40
   3  -3   4  532.35   48.70
  -4   3  -4    2.90    3.10
  -4   3  -4    6.80    4.50
   4  -3   4    7.60    3.10
   4  -3   4   -4.10    9.70
   4  -3   4    9.60    6.90
  -5   3  -4   24.10    4.50
   5  -3   4   35.60    7.90
   5  -3   4   33.80    5.80
   5  -3   4   16.70   10.20
  -6   3  -4   10.00    2.00
  -6   3  -4   10.80    2.30
   6  -3   4    7.90    2.00
   5   2  -4  209.98   17.90
   5   2  -4  228.78   13.70
  -5  -2   4  231.18   20.90
  -5  -2   4  183.78   21.30
  -5  -2   4  233.18   17.00
  -5  -2   4  194.18   21.70
  -5  -2   4  226.78   16.10
   4   2  -4   38.70    6.90
   4   2  -4   23.20    5.90
   4   2  -4   26.70    5.20
   4   2  -4   28.20    2.60
  -4  -2   4   23.60    9.10
  -4  -2   4    5.10    9.60
  -4  -2   4   39.50    6.40
  -4  -2   4   39.10   11.30
  -4  -2   4   25.90    7.60
   3   2  -4   62.19    6.00
   3   2  -4   64.19    6.30
   3   2  -4   72.49    9.20
   3   2  -4   67.69    7.20
   3   2  -4   60.39    8.40
  -3  -2   4   72.59   12.70
  -3  -2   4   61.69    9.40
  -3  -2   4   65.79   15.10
  -3  -2   4   77.79   11.20
  -3  -2   4   70.59    9.40
  -3  -2   4   65.69    8.20
   2   2  -4   51.19    4.90
   2   2  -4   71.79    7.70
  -2  -2   4   70.49   12.50
  -2  -2   4   59.29    9.60
  -2  -2   4   61.89    7.60
  -2  -2   4   62.59    9.20
  -2  -2   4   54.29    9.80
   1   2  -4   -0.70    3.10
   1   2  -4   -1.50    3.40
  -1  -2   4   -0.40    3.00
  -1  -2   4   -0.40    2.00
  -1  -2   4    1.70    5.10
   0   2  -4  770.12   46.00
   0   2  -4  649.34   40.10
   0   2  -4  720.83   39.00
   0  -2   4  667.53   43.60
   0  -2   4  732.33   41.60
  -1   2  -4 1776.02   94.99
  -1   2  -4 1732.53   92.99
   1  -2   4 1722.23   96.09
   1  -2   4 1742.93   93.69
  -2   2  -4  115.19   11.30
  -2   2  -4  114.59    8.50
   2  -2   4  116.99   11.50
   2  -2   4  118.89   10.50
   2  -2   4  114.69   16.90
   2  -2   4  120.59   10.90
   2  -2   4  125.89   13.10
  -3   2  -4  213.48   16.40
  -3   2  -4  261.47   18.40
  -3   2  -4  238.58   15.30
  -3   2  -4  241.18   15.00
  -3   2  -4  222.68   16.80
   3  -2   4  262.87   17.70
   3  -2   4  268.17   21.00
   3  -2   4  253.97   27.50
   3  -2   4  239.18   15.80
   3  -2   4  258.87   19.30
  -4   2  -4  145.59   11.50
  -4   2  -4  160.78   11.10
  -4   2  -4  152.88   11.80
  -4   2  -4  156.08   11.50
   4  -2   4  144.59    9.90
   4  -2   4  202.38   20.10
   4  -2   4  163.38   25.90
   4  -2   4  161.48   12.30
   4  -2   4  169.78   14.80
   4  -2   4  177.58   14.80
  -5   2  -4    5.30    3.50
   5  -2   4    6.10    4.00
   5  -2   4   17.00    9.90
  -6   2  -4   27.80    3.50
   6  -2   4   27.10    3.20
   6  -2   4   20.50    2.80
   5   1  -4  261.77   16.30
   5   1  -4  241.18   19.70
  -5  -1   4  235.08   18.90
  -5  -1   4  252.37   16.90
  -5  -1   4  288.77   17.70
  -5  -1   4  234.88   16.80
   4   1  -4   57.09    7.30
   4   1  -4   42.70    5.90
   4   1  -4   50.69    5.90
   4   1  -4   51.89    8.90
  -4  -1   4   37.00   13.50
  -4  -1   4   54.49    9.50
  -4  -1   4   53.59    8.10
  -4  -1   4   61.39    7.70
  -4  -1   4   57.49   14.00
  -4  -1   4   79.99   12.20
  -4  -1   4   56.79    8.90
   3   1  -4   81.99    7.30
   3   1  -4   89.29    8.50
   3   1  -4   95.09   10.30
   3   1  -4   85.39    8.30
  -3  -1   4   90.79    8.00
  -3  -1   4   86.59   14.70
  -3  -1   4   88.79   11.60
  -3  -1   4   89.69   14.10
  -3  -1   4   78.59   10.40
  -3  -1   4   84.89    7.90
  -3  -1   4   89.99   14.00
  -3  -1   4   87.19   10.80
   2   1  -4   64.99    7.40
   2   1  -4   76.69    9.40
  -2  -1   4   91.39   11.90
  -2  -1   4   73.39   12.70
  -2  -1   4   75.79    9.10
  -2  -1   4   82.19    9.30
  -2  -1   4   75.09    9.00
   1   1  -4  504.75   32.50
   1   1  -4  527.65   30.10
   1   1  -4  485.25   28.60
  -1  -1   4  496.45   32.00
  -1  -1   4  554.34   31.50
  -1  -1   4  495.05   32.40
  -1  -1   4  483.95   29.60
  -1  -1   4  504.35   31.90
   0   1  -4   75.29    6.40
   0   1  -4   75.59    7.10
   0   1  -4   68.89    9.60
   0  -1   4   85.09   11.30
   0  -1   4   81.79   11.40
  -1   1  -4 1243.48   66.59
  -1   1  -4 1115.89   66.59
  -1   1  -4 1258.37   74.19
  -1   1  -4 1215.38   66.99
  -1   1  -4 1202.68   65.79
   1  -1   4 1263.67   70.99
   1  -1   4 1262.67   67.79
  -2   1  -4   19.00    4.70
  -2   1  -4   33.00    5.10
  -2   1  -4   24.10    4.20
   2  -1   4   28.60    5.40
   2  -1   4   43.90    6.60
   2  -1   4   38.00    8.80
   2  -1   4   38.50   12.30
   2  -1   4   24.30    7.50
  -3   1  -4  432.06   25.50
  -3   1  -4  455.25   26.90
  -3   1  -4  433.76   26.60
  -3   1  -4  446.06   26.70
  -3   1  -4  457.35   26.60
   3  -1   4  463.35   28.90
   3  -1   4  456.55   29.60
   3  -1   4  472.25   38.50
   3  -1   4  467.95   31.00
   3  -1   4  428.46   29.90
   3  -1   4  444.86   31.10
  -4   1  -4  364.66   24.80
  -4   1  -4  394.46   25.10
  -4   1  -4  365.86   21.60
  -4   1  -4  362.76   23.10
   4  -1   4  366.56   22.70
   4  -1   4  337.67   20.80
   4  -1   4  368.26   37.70
   4  -1   4  343.67   26.20
   4  -1   4  388.36   28.00
   4  -1   4  370.56   24.00
  -5   1  -4  126.29   10.70
  -5   1  -4  144.49   10.10
  -5   1  -4  141.19   10.50
   5  -1   4  139.49   11.80
   5  -1   4  147.19    9.20
  -6   1  -4   51.69    4.10
   6  -1   4   67.89    4.90
   6   0  -4    6.40    1.90
  -6   0   4    6.50    2.20
  -6   0   4   10.00    2.40
   5   0  -4   61.29   10.30
   5   0  -4   56.49    5.70
   5   0  -4   59.29    7.70
  -5   0   4   56.49    9.90
  -5   0   4   54.09    7.10
  -5   0   4   53.69    7.10
   4   0  -4  363.66   22.60
   4   0  -4  368.56   23.70
   4   0  -4  351.06   26.30
  -4   0   4  383.46   33.00
  -4   0   4  386.96   23.20
  -4   0   4  410.96   26.50
  -4   0   4  313.07   28.80
  -4   0   4  381.06   23.40
  -4   0   4  408.06   26.70
  -4   0   4  364.06   31.40
  -4   0   4  311.37   28.40
   3   0  -4   23.60    4.30
   3   0  -4   24.70    4.00
   3   0  -4   25.70    4.60
   3   0  -4   19.70    5.70
  -3   0   4   18.30    6.00
  -3   0   4   24.60    9.40
  -3   0   4   28.70    4.70
  -3   0   4   21.00    5.60
  -3   0   4   25.40   10.10
  -3   0   4   24.80    9.00
  -3   0   4   26.00    6.80
   2   0  -4  287.67   20.90
   2   0  -4  296.07   18.10
   2   0  -4  289.27   22.20
  -2   0   4  273.67   20.20
  -2   0   4  305.27   19.40
  -2   0   4  268.47   23.30
  -2   0   4  262.27   23.00
  -2   0   4  285.77   18.70
  -2   0   4  307.67   22.10
   1   0  -4   60.89    6.80
   1   0  -4   48.70    5.40
   1   0  -4   55.89    8.10
  -1   0   4   46.30    7.70
  -1   0   4   47.60    7.20
  -1   0   4   87.09   12.60
  -1   0   4   57.69    6.70
   0   0  -4   27.90    5.50
   0   0  -4   36.40    3.90
   0   0  -4   24.70    3.80
   0   0  -4   14.60    5.90
   0   0   4   36.60    4.80
   0   0   4   38.60    6.30
   0   0   4   23.90    6.60
  -1   0  -4    3.80    2.50
  -1   0  -4    1.80    2.10
  -1   0  -4    7.30    5.00
  -1   0  -4    0.70    4.70
   1   0   4    4.90    5.50
   1   0   4    4.30    5.10
  -2   0  -4 1354.56   74.19
  -2   0  -4 1395.16   75.19
  -2   0  -4 1380.66   83.49
  -2   0  -4 1332.77   76.69
  -2   0  -4 1319.07   78.19
   2   0   4 1394.46   74.59
   2   0   4 1433.26   79.39
   2   0   4 1387.66   80.19
   2   0   4 1373.46   75.39
   2   0   4 1378.96   76.19
  -3   0  -4    0.90    4.40
  -3   0  -4    3.10    2.90
  -3   0  -4    2.40    2.80
  -3   0  -4    0.90    2.40
  -3   0  -4   -3.80    6.20
  -3   0  -4    0.90    3.60
   3   0   4   -1.10    3.50
   3   0   4   -1.50    1.30
   3   0   4   -1.90    6.30
   3   0   4    1.10    1.50
   3   0   4    1.80    5.30
   3   0   4    3.30    5.30
  -4   0  -4  587.74   32.60
  -4   0  -4  554.24   33.80
  -4   0  -4  550.54   33.30
  -4   0  -4  589.64   34.30
  -4   0  -4  567.04   34.50
  -4   0  -4  529.65   40.80
   4   0   4  585.84   33.10
   4   0   4  571.24   31.70
   4   0   4  606.94   34.30
   4   0   4  603.74   37.00
   4   0   4  518.25   42.60
   4   0   4  582.04   37.80
  -5   0  -4  393.96   25.30
  -5   0  -4  398.86   24.70
  -5   0  -4  400.26   25.20
  -5   0  -4  378.26   23.80
   5   0   4  426.06   24.20
   5   0   4  396.96   22.90
  -6   0  -4   24.10    4.30
  -6   0  -4   31.60    4.00
   6   0   4   26.30    3.20
   6   0   4   30.90    3.40
   6  -1  -4   14.80    3.00
   5  -1  -4    2.50    3.60
   5  -1  -4    4.60    4.30
   5  -1  -4    2.00    2.50
  -5   1   4    2.50    3.60
  -5   1   4   -0.10    3.70
  -5   1   4    3.00    3.40
   4  -1  -4  461.65   29.50
   4  -1  -4  471.25   28.20
   4  -1  -4  473.65   33.50
   4  -1  -4  431.46   42.40
  -4   1   4  496.85   28.60
  -4   1   4  486.25   38.60
  -4   1   4  496.35   29.30
  -4   1   4  471.05   31.00
   3  -1  -4  525.85   35.60
   3  -1  -4  513.95   31.80
   3  -1  -4  524.35   30.60
   3  -1  -4  566.74   32.50
   3  -1  -4  506.65   37.80
   3  -1  -4  514.15   43.50
  -3   1   4  525.45   31.90
  -3   1   4  532.95   31.60
  -3   1   4  493.75   34.60
  -3   1   4  581.54   31.10
  -3   1   4  574.34   33.70
  -3   1   4  534.75   39.30
  -3   1   4  542.55   33.60
  -3   1   4  533.75   39.10
   2  -1  -4  154.98   11.20
   2  -1  -4  157.48   17.70
   2  -1  -4  160.38   15.10
   2  -1  -4  156.68   16.10
  -2   1   4  126.39   14.20
  -2   1   4  177.08   15.60
  -2   1   4  144.59   16.40
  -2   1   4  145.79   12.40
  -2   1   4  156.88   13.00
  -2   1   4  166.58   12.20
   1  -1  -4 1439.96   85.79
   1  -1  -4 1721.63   88.89
   1  -1  -4 1595.34   92.09
  -1   1   4 1519.25   88.69
  -1   1   4 1712.93   90.89
  -1   1   4 1691.13   87.39
   0  -1  -4   23.30    6.70
   0  -1  -4   21.50    3.10
   0  -1  -4   33.60    6.20
   0  -1  -4   27.90    3.40
   0   1   4   20.10    3.50
   0   1   4   13.10    4.00
   0   1   4   15.80    4.30
  -1  -1  -4  707.53   38.80
  -1  -1  -4  681.13   35.50
  -1  -1  -4  646.24   36.40
  -1  -1  -4  705.63   42.30
   1   1   4  662.13   36.20
   1   1   4  591.24   39.10
   1   1   4  591.24   39.50
  -2  -1  -4   29.80    7.50
  -2  -1  -4   34.10    5.70
  -2  -1  -4   33.40    7.80
   2   1   4   24.10    3.80
   2   1   4   28.60    7.20
   2   1   4   16.40    6.20
   2   1   4   23.40    8.30
  -3  -1  -4  988.50   56.49
  -3  -1  -4 1000.40   55.59
  -3  -1  -4 1003.40   55.29
  -3  -1  -4  911.31   58.49
  -3  -1  -4 1007.30   55.39
  -3  -1  -4 1055.29   64.39
   3   1   4 1017.40   54.79
   3   1   4  991.80   54.79
   3   1   4 1003.50   59.09
   3   1   4 1042.50   56.29
   3   1   4  938.21   53.39
  -4  -1  -4  449.56   28.30
  -4  -1  -4  453.15   29.00
  -4  -1  -4  529.95   34.80
  -4  -1  -4  462.25   38.70
  -4  -1  -4  485.15   29.50
  -4  -1  -4  468.75   27.20
  -4  -1  -4  465.95   28.70
   4   1   4  463.65   26.40
   4   1   4  523.55   32.60
   4   1   4  459.95   27.30
   4   1   4  452.65   27.70
  -5  -1  -4  120.49    9.10
  -5  -1  -4  117.19   10.60
  -5  -1  -4  114.99   11.10
  -5  -1  -4  126.29   12.30
  -5  -1  -4  121.99   12.00
   5   1   4  143.09   10.20
   5   1   4  111.09    9.20
   5   1   4  122.39    8.50
  -6  -1  -4    2.20    2.50
  -6  -1  -4    4.40    2.30
   6   1   4    2.90    2.50
   5  -2  -4   90.59    7.40
   5  -2  -4   79.79    9.00
  -5   2   4   99.09   11.70
  -5   2   4   94.29    8.30
   4  -2  -4  140.59   12.80
   4  -2  -4  192.18   15.70
   4  -2  -4  168.88   20.60
   4  -2  -4  165.68   11.70
  -4   2   4  167.88   20.70
  -4   2   4  161.98   12.70
  -4   2   4  154.88   12.20
  -4   2   4  162.58   11.90
  -4   2   4  175.98   16.10
   3  -2  -4 1551.04   94.39
   3  -2  -4 1484.45   85.39
   3  -2  -4 1635.14   89.69
   3  -2  -4 1603.04   86.69
   3  -2  -4 1541.75   86.59
   3  -2  -4 1507.85   90.79
   3  -2  -4 1536.05   98.19
  -3   2   4 1580.64   85.19
  -3   2   4 1604.94   87.49
  -3   2   4 1476.65   86.19
  -3   2   4 1701.73   95.89
  -3   2   4 1704.43   84.89
  -3   2   4 1475.65   85.29
   2  -2  -4  398.66   32.00
   2  -2  -4  425.06   26.60
   2  -2  -4  388.36   24.90
   2  -2  -4  421.76   31.30
   2  -2  -4  391.46   28.20
  -2   2   4  406.26   24.70
  -2   2   4  456.95   26.00
  -2   2   4  417.36   31.00
   1  -2  -4 1794.12   90.09
   1  -2  -4 1725.73   95.49
   1  -2  -4 1729.33   96.49
  -1   2   4 1670.73   90.19
  -1   2   4 1476.65   93.69
  -1   2   4 1676.83   89.29
  -1   2   4 1636.14   90.89
   0  -2  -4  350.76   21.60
   0  -2  -4  330.47   18.70
   0  -2  -4  359.06   26.20
   0   2   4  323.07   19.40
   0   2   4  323.87   22.50
   0   2   4  294.77   21.10
  -1  -2  -4   17.70    5.90
  -1  -2  -4   22.70    7.50
  -1  -2  -4   18.70    4.10
   1   2   4   19.40    3.10
   1   2   4   18.30    6.30
   1   2   4   11.80    4.10
   1   2   4   17.10    1.90
   1   2   4   17.60    2.00
   1   2   4   14.80    6.60
   1   2   4   20.10    3.50
  -2  -2  -4  321.47   22.60
  -2  -2  -4  351.16   21.40
  -2  -2  -4  347.57   31.30
  -2  -2  -4  373.26   25.00
   2   2   4  380.26   24.40
   2   2   4  344.17   20.60
   2   2   4  373.96   19.50
  -3  -2  -4    8.60    5.40
  -3  -2  -4    0.40    2.00
  -3  -2  -4    3.40    2.90
  -3  -2  -4    9.40    5.50
  -3  -2  -4   11.90    5.20
  -3  -2  -4   14.10    8.20
  -3  -2  -4    3.10    4.80
   3   2   4    2.00    1.20
   3   2   4    3.40    1.90
  -4  -2  -4  377.06   23.70
  -4  -2  -4  391.96   23.40
  -4  -2  -4  329.27   28.30
  -4  -2  -4  361.06   22.70
  -4  -2  -4  368.86   24.80
  -4  -2  -4  332.07   21.10
  -4  -2  -4  365.06   33.60
   4   2   4  354.46   26.00
   4   2   4  320.67   21.60
   4   2   4  352.66   21.10
   4   2   4  339.67   20.50
  -5  -2  -4  264.87   18.30
  -5  -2  -4  269.37   19.00
  -5  -2  -4  272.57   18.90
  -5  -2  -4  267.27   25.20
  -5  -2  -4  281.37   21.00
   5   2   4  292.07   17.80
   5   2   4  259.57   16.20
  -6  -2  -4   -4.10    5.40
  -6  -2  -4    2.60    2.50
  -6  -2  -4    2.00    3.60
   6   2   4   -0.30    1.60
   6   2   4   -0.10    1.20
   5  -3  -4  157.08   12.70
   5  -3  -4  164.98   11.30
  -5   3   4  156.38   13.80
  -5   3   4  166.48   11.10
   4  -3  -4   15.50    7.10
   4  -3  -4   11.50    3.70
   4  -3  -4    9.80   12.50
   4  -3  -4   17.20    5.00
  -4   3   4   10.30    5.30
  -4   3   4    9.10    5.00
  -4   3   4   17.40    7.40
  -4   3   4    5.10    5.60
  -4   3   4   11.90    4.60
  -4   3   4   14.90    3.40
   3  -3  -4  788.02   45.20
   3  -3  -4  809.12   50.49
   3  -3  -4  710.53   44.10
   3  -3  -4  793.72   52.89
   3  -3  -4  827.42   56.69
   3  -3  -4  634.54   42.80
  -3   3   4  729.13   43.40
  -3   3   4  793.82   44.10
  -3   3   4  727.33   51.79
  -3   3   4  782.62   42.20
  -3   3   4  717.63   42.40
  -3   3   4  812.82   45.30
   2  -3  -4  220.98   21.50
   2  -3  -4  226.98   16.30
   2  -3  -4  227.78   16.50
   2  -3  -4  223.68   18.60
   2  -3  -4  238.08   21.00
  -2   3   4  215.48   13.80
  -2   3   4  237.18   15.90
  -2   3   4  202.88   20.20
   1  -3  -4  226.48   21.00
   1  -3  -4  217.28   18.50
   1  -3  -4  222.08   15.20
   1  -3  -4  215.48   14.00
   1  -3  -4  199.38   14.00
  -1   3   4  202.88   11.30
  -1   3   4  162.98   16.60
  -1   3   4  199.48   13.90
   0  -3  -4   61.49    9.60
   0  -3  -4   42.90    9.90
   0   3   4   54.39    7.40
   0   3   4   42.90    4.40
   0   3   4   48.80    6.50
   0   3   4   38.30    8.90
  -1  -3  -4  181.78   14.80
  -1  -3  -4  162.78   11.30
  -1  -3  -4  193.18   18.10
   1   3   4  145.99   16.90
   1   3   4  170.28   14.50
  -2  -3  -4 1505.15   83.69
  -2  -3  -4 1527.25   90.09
  -2  -3  -4 1401.46   88.39
  -2  -3  -4 1509.75   80.69
  -2  -3  -4 1481.95   81.19
  -2  -3  -4 1477.25   81.39
   2   3   4 1466.05   91.59
   2   3   4 1586.74   84.49
  -3  -3  -4   42.10   10.00
  -3  -3  -4   50.19   12.20
  -3  -3  -4   36.40    5.20
  -3  -3  -4   44.30    7.00
  -3  -3  -4   20.80    3.90
  -3  -3  -4   30.90   10.90
   3   3   4   34.70    7.30
   3   3   4   23.80    3.00
   3   3   4   20.00    3.00
  -4  -3  -4   -1.10    5.40
  -4  -3  -4   -1.00    6.40
  -4  -3  -4   -2.00    3.30
  -4  -3  -4    3.00    9.60
  -4  -3  -4    0.60    6.10
  -4  -3  -4    5.40    4.30
   4   3   4    0.00    4.80
   4   3   4    0.30    3.20
   4   3   4    0.20    3.80
   4   3   4    1.00    1.80
  -5  -3  -4  292.77   18.60
  -5  -3  -4  241.48   21.30
  -5  -3  -4  294.97   18.10
  -5  -3  -4  231.48   24.70
  -5  -3  -4  241.98   18.30
   5   3   4  257.27   15.80
   5   3   4  242.68   16.60
   5   3   4  272.57   20.60
   5   3   4  241.48   15.70
  -6  -3  -4   45.10    5.00
  -6  -3  -4   35.50    6.40
  -6  -3  -4   49.60    5.50
   6   3   4   44.30    4.30
   5  -4  -4   95.29    8.70
   5  -4  -4   87.49    8.60
  -5   4   4   79.49    8.60
  -5   4   4   93.19    7.10
   4  -4  -4   48.70   13.10
   4  -4  -4   20.10    5.20
   4  -4  -4   24.10    6.50
  -4   4   4   23.50    6.90
  -4   4   4   30.50    4.40
  -4   4   4   37.50    8.90
  -4   4   4   26.90    8.00
   3  -4  -4  341.07   28.40
   3  -4  -4  347.27   33.20
   3  -4  -4  348.17   24.80
   3  -4  -4  318.07   29.80
  -3   4   4  360.66   23.40
  -3   4   4  321.07   21.30
  -3   4   4  314.57   21.20
  -3   4   4  344.17   29.80
  -3   4   4  333.27   22.70
  -3   4   4  335.77   22.80
  -3   4   4  353.96   20.30
   2  -4  -4   19.50    8.90
   2  -4  -4   45.50    5.70
   2  -4  -4   21.00    7.80
   2  -4  -4   34.00    6.00
   2  -4  -4   22.90    9.20
   2  -4  -4   23.80    6.70
  -2   4   4   28.00    8.10
  -2   4   4   39.30    4.50
  -2   4   4   38.90    7.20
  -2   4   4   50.09    6.00
  -2   4   4   36.90    6.40
  -2   4   4   52.59   10.80
  -2   4   4   38.10    4.60
   1  -4  -4  470.85   33.20
   1  -4  -4  496.85   28.90
   1  -4  -4  511.35   31.10
   1  -4  -4  479.45   29.00
   1  -4  -4  479.65   36.40
  -1   4   4  478.35   28.40
  -1   4   4  500.15   34.60
   0  -4  -4  185.28   18.40
   0   4   4  157.58   16.30
   0   4   4  188.28   12.70
  -1  -4  -4 1509.45   84.89
  -1  -4  -4 1496.95   80.19
  -1  -4  -4 1354.06   75.99
   1   4   4 1298.57   83.79
   1   4   4 1432.66   78.89
  -2  -4  -4    3.80    6.00
  -2  -4  -4    8.40    4.20
  -2  -4  -4    8.50    3.80
  -2  -4  -4    6.20    6.40
  -2  -4  -4    0.60    4.90
  -2  -4  -4    2.60    2.60
   2   4   4    0.50    5.40
   2   4   4   -1.10    8.20
  -3  -4  -4  516.15   41.00
  -3  -4  -4  474.85   28.40
  -3  -4  -4  457.45   28.40
  -3  -4  -4  467.65   29.10
  -3  -4  -4  475.25   33.10
  -3  -4  -4  463.25   29.60
  -3  -4  -4  428.06   36.70
  -3  -4  -4  448.86   28.00
   3   4   4  452.65   31.70
   3   4   4  482.05   28.20
   3   4   4  475.85   25.90
   3   4   4  515.85   30.20
   3   4   4  465.65   26.50
  -4  -4  -4  109.49   13.80
  -4  -4  -4  117.89   10.60
  -4  -4  -4  102.19   13.40
  -4  -4  -4  117.99   16.10
  -4  -4  -4  122.99   10.30
  -4  -4  -4  123.79   10.60
  -4  -4  -4  138.29   22.50
   4   4   4  134.39   13.50
   4   4   4  125.59    8.20
   4   4   4  118.59   14.70
   4   4   4  122.49   12.10
   4   4   4  108.69    8.40
  -5  -4  -4    9.20    4.50
  -5  -4  -4    6.20    4.50
  -5  -4  -4    3.50    9.40
  -5  -4  -4    7.10    3.50
  -5  -4  -4    8.80    8.10
   5   4   4    7.50    2.60
   5   4   4    9.20    3.70
   5   4   4   10.20    2.50
  -6  -4  -4   23.30    4.70
   6   4   4   28.10    4.10
   6   4   4   17.80    2.20
   5  -5  -4   56.49    5.80
   5  -5  -4   52.29    6.30
  -5   5   4   58.29    4.60
   4  -5  -4   33.90    8.90
   4  -5  -4   30.90    5.80
   4  -5  -4   34.00   15.20
  -4   5   4   26.20    7.10
  -4   5   4   35.00    6.40
  -4   5   4   31.70    7.80
  -4   5   4   33.60    4.30
   3  -5  -4  194.38   25.30
   3  -5  -4  175.18   24.00
   3  -5  -4  196.28   24.00
   3  -5  -4  264.97   17.30
   3  -5  -4  215.38   18.50
  -3   5   4  249.08   16.50
  -3   5   4  228.98   18.00
  -3   5   4  228.38   14.50
  -3   5   4  254.47   17.00
  -3   5   4  280.97   26.00
  -3   5   4  249.38   18.80
  -3   5   4  237.58   18.80
   2  -5  -4   35.10   10.00
   2  -5  -4   36.70    7.70
   2  -5  -4   30.60    8.70
   2  -5  -4   45.80    5.90
   2  -5  -4   41.50   11.50
  -2   5   4   40.50    5.10
  -2   5   4   57.99    9.50
  -2   5   4   48.30    7.20
  -2   5   4   52.89   11.40
  -2   5   4   53.29    9.10
  -2   5   4   46.40    6.20
  -2   5   4   37.30    5.20
  -2   5   4   49.40    8.30
   1  -5  -4   13.60    3.10
   1  -5  -4   13.80    6.70
   1  -5  -4   18.60    4.50
   1  -5  -4    6.20    6.40
  -1   5   4   14.30    2.40
  -1   5   4   20.90    4.60
  -1   5   4   13.80    3.20
  -1   5   4   13.90    6.10
  -1   5   4   22.10    7.80
   0  -5  -4  140.49   17.20
   0  -5  -4  157.38   13.50
   0  -5  -4  153.38   11.40
   0   5   4  158.18   11.50
   0   5   4  178.08   11.50
   0   5   4  163.08   11.80
   0   5   4  180.58   18.40
  -1  -5  -4  241.38   16.10
  -1  -5  -4  265.07   15.80
  -1  -5  -4  240.18   18.40
  -1  -5  -4  249.28   24.40
   1   5   4  252.17   16.30
   1   5   4  238.68   17.60
   1   5   4  279.07   24.60
   1   5   4  249.48   18.30
   1   5   4  243.78   14.90
  -2  -5  -4  917.01   67.69
  -2  -5  -4 1054.39   59.09
  -2  -5  -4 1165.78   72.69
  -2  -5  -4 1053.59   61.89
  -2  -5  -4 1077.79   58.69
  -2  -5  -4 1046.90   59.39
   2   5   4 1119.79   62.39
   2   5   4 1065.39   71.19
   2   5   4 1015.10   56.59
   2   5   4  970.30   57.29
   2   5   4 1113.89   58.99
   2   5   4 1176.68   60.99
   2   5   4 1064.19   58.49
  -3  -5  -4   46.90    8.40
  -3  -5  -4   53.89    8.10
  -3  -5  -4   43.70    6.00
  -3  -5  -4   45.60    6.20
  -3  -5  -4   47.50    6.60
  -3  -5  -4   58.29   16.00
  -3  -5  -4   34.40   10.30
   3   5   4   48.40    8.10
   3   5   4   39.70    7.10
   3   5   4   44.20    9.30
   3   5   4   42.30    3.90
   3   5   4   40.50    4.50
  -4  -5  -4   65.99    8.00
  -4  -5  -4   56.09    9.50
  -4  -5  -4   44.40    9.30
  -4  -5  -4   54.29    6.40
  -4  -5  -4   67.39   14.70
  -4  -5  -4   55.49    7.60
   4   5   4   50.09    9.50
   4   5   4   54.29    9.10
   4   5   4   52.09    4.80
   4   5   4   52.09    7.00
   4   5   4   51.59    5.20
  -5  -5  -4   15.40    7.60
  -5  -5  -4   19.00    4.40
  -5  -5  -4   18.70    6.80
  -5  -5  -4   15.00    4.60
  -5  -5  -4   11.80    4.50
   5   5   4   22.10    4.30
   5   5   4   21.90    8.90
   5   5   4   16.90    5.40
   5   5   4   14.00    2.60
   5   5   4   14.00    2.30
  -6  -5  -4    4.20    3.10
  -6  -5  -4   -0.30    2.00
   6   5   4    1.30    1.30
   6   5   4    2.30    1.30
   5  -6  -4   11.60    3.50
   4  -6  -4   91.89    8.10
   4  -6  -4   56.39   10.00
   4  -6  -4   63.09   13.20
  -4   6   4   85.29    6.30
  -4   6   4   77.69    8.10
  -4   6   4   76.29    9.30
  -4   6   4   73.39   10.30
   3  -6  -4   -1.50    6.60
   3  -6  -4    0.20   10.80
   3  -6  -4    9.50    3.50
  -3   6   4    1.60    5.50
  -3   6   4    7.20    3.10
  -3   6   4    5.30    5.70
  -3   6   4    1.70    7.30
  -3   6   4    7.50    5.30
  -3   6   4    5.90    4.70
  -3   6   4    6.50    6.10
   2  -6  -4   34.70   12.50
   2  -6  -4   39.80   11.70
   2  -6  -4   74.69    7.10
   2  -6  -4   58.19    8.70
  -2   6   4   64.89    9.40
  -2   6   4   78.19   12.70
  -2   6   4   66.19    8.20
  -2   6   4   74.09    7.70
  -2   6   4   66.19    9.40
  -2   6   4   70.19    5.80
  -2   6   4   64.89   11.00
   1  -6  -4   96.99   15.90
   1  -6  -4  119.99   10.70
   1  -6  -4  114.59   13.40
  -1   6   4  113.79   12.60
  -1   6   4  120.29   12.50
  -1   6   4  112.39    9.00
  -1   6   4  125.49    7.50
  -1   6   4  141.79   17.70
  -1   6   4  119.99    9.10
  -1   6   4  117.79   11.00
   0  -6  -4    6.40    2.90
   0  -6  -4    5.40    5.50
   0  -6  -4    0.80    4.10
   0   6   4    0.80    2.90
   0   6   4    7.40    2.80
   0   6   4    4.60    2.30
   0   6   4    2.90    2.50
   0   6   4   -3.10    3.90
   0   6   4    2.20    4.90
   0   6   4   -6.40    3.30
   0   6   4    3.60    6.20
  -1  -6  -4  108.29    8.30
  -1  -6  -4  106.79   15.30
  -1  -6  -4  110.89    9.30
  -1  -6  -4   99.79   12.00
   1   6   4  122.69    9.20
   1   6   4  108.79   10.60
   1   6   4  119.59    8.20
   1   6   4  117.29   10.40
   1   6   4  107.59   11.10
   1   6   4  109.79   17.40
   1   6   4  125.79   10.20
  -2  -6  -4   69.19    8.10
  -2  -6  -4   79.09    7.20
  -2  -6  -4   71.69   11.30
  -2  -6  -4   51.49   11.90
  -2  -6  -4   84.99   16.70
  -2  -6  -4   64.49    8.30
   2   6   4   74.79    7.60
   2   6   4   79.79   10.10
   2   6   4   84.99   18.40
   2   6   4   73.09   10.70
   2   6   4   86.89   11.50
   2   6   4   80.09    6.30
   2   6   4   80.59    7.50
   2   6   4   83.29    4.60
  -3  -6  -4   14.20    7.80
  -3  -6  -4   11.70    5.50
  -3  -6  -4    8.90    3.30
  -3  -6  -4   12.30    6.80
  -3  -6  -4    9.50    8.40
  -3  -6  -4   12.40    4.00
  -3  -6  -4   10.30    6.40
   3   6   4   10.60    2.80
   3   6   4   14.70    4.00
   3   6   4    8.60    1.50
   3   6   4   16.00    6.30
   3   6   4   12.00    6.10
   3   6   4   19.90    6.10
  -4  -6  -4  176.58   18.90
  -4  -6  -4  172.08   16.30
  -4  -6  -4  177.68   16.60
  -4  -6  -4  198.88   13.50
  -4  -6  -4  190.08   15.10
  -4  -6  -4  200.08   13.90
   4   6   4  193.28   17.30
   4   6   4  178.38   13.90
   4   6   4  194.38   11.00
  -5  -6  -4   78.39   10.10
  -5  -6  -4   92.99   14.60
  -5  -6  -4   94.79    9.90
  -5  -6  -4   95.89    8.20
   5   6   4   72.49    7.90
   5   6   4   83.59    6.30
   5   6   4   85.09    7.20
   4  -7  -4   38.70   11.60
   4  -7  -4   46.40    8.20
   4  -7  -4   41.70    5.10
  -4   7   4   33.50    6.60
  -4   7   4   37.70    5.90
   3  -7  -4  132.29   20.80
   3  -7  -4  139.29   15.60
  -3   7   4  147.69   13.30
  -3   7   4  121.89   14.30
  -3   7   4  161.98   12.20
  -3   7   4  156.48   11.10
   2  -7  -4    1.60    2.40
   2  -7  -4   -2.40    4.90
   2  -7  -4   -3.30    8.00
  -2   7   4    2.90    5.00
  -2   7   4    6.70    7.20
  -2   7   4   -0.30    2.80
  -2   7   4    0.30    3.80
  -2   7   4   -4.20    5.60
   1  -7  -4  138.69   23.50
   1  -7  -4  138.69   12.70
   1  -7  -4  137.09   15.80
  -1   7   4  165.88   15.80
  -1   7   4  166.58   12.30
  -1   7   4  156.48   12.10
  -1   7   4  165.98   13.60
  -1   7   4  158.68   15.30
   0  -7  -4   37.80   11.60
   0  -7  -4   46.40    6.70
   0  -7  -4   47.40    8.80
   0   7   4   36.80    6.40
   0   7   4   47.80    8.10
   0   7   4   40.30    5.80
   0   7   4   35.80    5.10
   0   7   4   52.59    8.90
   0   7   4   41.20    7.60
   0   7   4   36.50   12.50
  -1  -7  -4  509.35   40.80
  -1  -7  -4  443.46   31.30
  -1  -7  -4  399.06   38.90
   1   7   4  505.55   30.30
   1   7   4  515.35   32.90
   1   7   4  494.05   27.50
   1   7   4  439.46   30.20
   1   7   4  476.25   29.20
   1   7   4  441.26   29.30
   1   7   4  549.15   42.20
  -2  -7  -4   98.79    9.50
  -2  -7  -4   93.89   12.10
  -2  -7  -4  100.59    9.90
  -2  -7  -4  109.59   16.80
  -2  -7  -4  100.69    9.10
   2   7   4   89.79    8.80
   2   7   4   91.89    9.80
   2   7   4   91.29    7.70
   2   7   4  102.49   10.00
   2   7   4  110.69   14.10
  -3  -7  -4    5.20    3.90
  -3  -7  -4    2.10    4.10
  -3  -7  -4    5.10    3.60
   3   7   4    0.00    6.10
   3   7   4    3.00    3.10
   3   7   4    2.30    3.00
   3   7   4    4.20    3.60
   3   7   4    1.90    5.70
  -4  -7  -4    5.90    2.40
  -4  -7  -4    7.20    5.90
  -4  -7  -4    2.10    3.20
  -4  -7  -4    2.70    7.90
   4   7   4    4.00    2.80
   4   7   4    7.70    6.40
   4   7   4    3.40    2.20
   4   7   4    7.80    6.10
  -5  -7  -4  266.67   22.40
  -5  -7  -4  238.18   14.20
  -5  -7  -4  236.38   15.40
  -5  -7  -4  182.18   17.50
   5   7   4  231.18   13.40
   5   7   4  243.58   14.40
   4  -8  -4    8.00    3.50
  -4   8   4    6.60    2.70
   3  -8  -4   81.09   13.20
   3  -8  -4   96.49    7.00
   3  -8  -4  105.79   12.00
  -3   8   4  116.09    8.70
  -3   8   4   75.19   10.40
  -3   8   4   93.09   10.30
  -3   8   4  101.39    8.50
   2  -8  -4   86.69   11.20
   2  -8  -4  103.49   16.70
  -2   8   4  101.69    8.90
  -2   8   4   96.69   12.40
  -2   8   4  106.89   11.30
  -2   8   4   93.39   10.90
   1  -8  -4  141.69   16.40
   1  -8  -4  151.88   13.60
  -1   8   4  189.98   22.40
  -1   8   4  160.58   14.90
  -1   8   4  153.98   16.10
  -1   8   4  171.68   12.60
  -1   8   4  166.98   13.30
  -1   8   4  173.98   14.50
   0  -8  -4  287.17   22.30
   0   8   4  289.77   18.30
   0   8   4  311.17   29.30
   0   8   4  301.57   18.50
   0   8   4  281.97   19.70
   0   8   4  260.07   20.40
   0   8   4  281.17   22.40
  -1  -8  -4   98.09   13.10
   1   8   4  122.09    9.70
   1   8   4  129.89    9.10
   1   8   4  143.29   20.90
   1   8   4  109.09   11.10
   1   8   4  101.79   12.40
   1   8   4  120.79   11.70
   1   8   4  106.69   10.30
   1   8   4  104.29   12.30
  -2  -8  -4   80.29    9.00
  -2  -8  -4   75.99   11.30
   2   8   4   82.69    8.10
   2   8   4   73.99    6.70
   2   8   4   78.49    8.20
   2   8   4   79.79    9.10
   2   8   4   75.99   10.80
  -3  -8  -4   16.60    5.70
  -3  -8  -4   12.70    3.80
  -3  -8  -4    8.70    6.40
   3   8   4   10.60    4.50
   3   8   4   14.70    3.90
   3   8   4   15.10    4.70
   3   8   4   10.30    7.70
  -4  -8  -4    6.10    5.30
  -4  -8  -4    5.40    4.10
  -4  -8  -4    2.80    6.50
   4   8   4    6.60    3.80
   4   8   4    4.90    2.40
   4   8   4    4.10    2.10
   4   8   4    6.60    4.80
   3  -9  -4   16.70    4.60
  -3   9   4   10.60    5.10
  -3   9   4    8.70    4.60
   2  -9  -4   89.19   12.10
   2  -9  -4   98.29   10.50
  -2   9   4  110.09    8.00
  -2   9   4  108.19   10.20
  -2   9   4   86.99   11.40
  -2   9   4  116.99    9.50
   1  -9  -4    1.00    5.00
   1  -9  -4   -3.70    2.80
  -1   9   4   -2.50    3.60
  -1   9   4    4.20    4.20
  -1   9   4   -3.50    4.60
  -1   9   4   -3.30    5.20
  -1   9   4   -2.40    3.80
   0  -9  -4  165.48   15.30
   0   9   4  206.48   14.50
   0   9   4  192.88   16.00
   0   9   4  185.18   16.70
   0   9   4  202.58   15.00
   0   9   4  198.28   12.70
  -1  -9  -4   -0.60    3.10
   1   9   4    3.70    4.90
   1   9   4    5.90    4.70
   1   9   4    0.20    4.30
   1   9   4   -2.40    3.30
   1   9   4    1.40    5.50
  -2  -9  -4   10.20    4.90
   2   9   4   15.90    6.00
   2   9   4   13.70    3.80
   2   9   4   18.00    6.30
   2   9   4   10.60    4.80
   2   9   4   15.00    3.10
  -3  -9  -4    5.30    3.70
  -3  -9  -4    0.60    4.00
   3   9   4   10.80    5.50
   3   9   4    0.00    6.90
   3   9   4    1.40    3.70
   3   9   4    1.40    2.10
  -4  -9  -4   14.90    4.20
   4   9   4    7.00    3.40
   4   9   4   11.70    1.70
  -2  10   4   16.00    3.50
  -2  10   4   14.80    2.00
  -2  10   4   16.30    3.60
  -2  10   4   15.50    4.70
  -1  10   4    5.60    4.90
  -1  10   4   -0.80    3.90
  -1  10   4    2.90    2.30
  -1  10   4    4.80    5.50
   0  10   4   17.40    5.30
   0  10   4   11.30    3.80
   0  10   4   19.00    4.20
   0  10   4   10.60    5.90
   0  10   4   11.50    4.50
   1  10   4   21.20    4.50
   1  10   4   28.90   10.70
   1  10   4   14.70    3.30
   1  10   4   25.20    3.40
   1  10   4   28.30    4.20
   2  10   4    4.90    2.60
   2  10   4    3.80    2.20
   2  10   4    2.70    4.70
   2  10   4    0.70    3.10
   3  10   4   39.60    5.60
   3  10   4   31.60    3.20
   3  10   4   38.80    3.50
   1   9  -5   38.70    4.20
   1   9  -5   38.60    3.90
   0   9  -5   39.90    4.60
  -1   9  -5    3.70    3.60
  -1   9  -5    3.10    2.50
   2   8  -5    6.80    2.40
   2   8  -5    8.40    3.00
   2   8  -5    3.70    3.10
  -2  -8   5    0.80    4.70
  -2  -8   5    1.40    3.50
   1   8  -5   43.30    5.40
   1   8  -5   19.80    4.50
   1   8  -5   32.50    5.30
  -1  -8   5   30.50    4.80
  -1  -8   5   26.80    5.50
  -1  -8   5   23.70    7.00
   0   8  -5    3.50    4.70
   0   8  -5    7.60    2.80
   0   8  -5    6.80    5.00
   0  -8   5    6.20    4.70
   0  -8   5    9.10    3.70
  -1   8  -5   14.00    6.60
  -1   8  -5   17.10    4.40
  -1   8  -5   24.30    3.20
   1  -8   5   13.30    6.00
   1  -8   5   15.50    4.40
  -2   8  -5   30.30    8.50
  -2   8  -5   35.70    4.40
  -2   8  -5   37.10    4.30
   2  -8   5   24.20    5.20
   2  -8   5   22.30   11.20
   3   7  -5   13.10    4.60
   3   7  -5    5.50    4.20
   3   7  -5   11.80    5.40
  -3  -7   5   10.90    4.20
  -3  -7   5    9.70    4.60
   2   7  -5    1.10    2.70
   2   7  -5    0.90    4.70
   2   7  -5   -0.50    3.90
  -2  -7   5    1.10    5.20
  -2  -7   5    0.10    4.70
   1   7  -5   16.20    6.60
   1   7  -5   36.00    5.90
   1   7  -5   25.70    5.20
  -1  -7   5   29.90    9.50
  -1  -7   5   27.10    7.20
   0   7  -5   15.10    6.20
   0   7  -5    5.90    4.40
   0   7  -5    9.20    6.80
   0   7  -5    4.20    3.80
   0  -7   5    0.40    4.20
   0  -7   5    7.20    7.40
  -1   7  -5    5.10    2.40
  -1   7  -5   -0.60    6.40
  -1   7  -5    1.30    3.60
  -1   7  -5   -0.20    3.20
   1  -7   5    4.90    7.70
   1  -7   5    0.10    4.60
  -2   7  -5    0.80    2.30
  -2   7  -5    3.10    6.40
  -2   7  -5   -1.80    5.40
   2  -7   5   -1.20    6.30
   2  -7   5    1.60    4.90
  -3   7  -5  242.28   14.20
  -3   7  -5  250.27   15.50
   3  -7   5  210.18   16.60
   3  -7   5  209.88   13.90
   4   6  -5    5.20    3.30
   4   6  -5    3.30    2.40
   4   6  -5    2.70    5.50
  -4  -6   5    3.20    1.80
  -4  -6   5   -1.20    3.50
  -4  -6   5    1.30    6.70
   3   6  -5   29.80    6.20
   3   6  -5   22.80    6.60
   3   6  -5   46.70    6.20
  -3  -6   5   30.30    7.80
  -3  -6   5   21.80    9.50
  -3  -6   5   37.80    7.10
   2   6  -5   -0.40    7.40
   2   6  -5   -0.50    4.80
   2   6  -5    4.00    3.40
   2   6  -5    3.50    4.40
  -2  -6   5    3.00    5.40
  -2  -6   5    8.60   10.40
  -2  -6   5    0.60    2.00
  -2  -6   5   -1.90    4.30
   1   6  -5   84.79    8.70
   1   6  -5   81.29   10.40
   1   6  -5   93.89   11.50
   1   6  -5   73.89    9.70
   1   6  -5   76.69    8.80
  -1  -6   5   91.19   10.70
   0   6  -5  141.79   10.50
   0   6  -5  129.99   14.10
   0   6  -5  140.59   17.20
   0   6  -5  142.39   12.90
   0  -6   5  132.19   12.50
   0  -6   5  139.39   16.70
  -1   6  -5   61.39   12.90
  -1   6  -5   67.09    8.10
  -1   6  -5   78.89    7.50
  -1   6  -5   63.19    7.80
  -1   6  -5   66.89   11.50
   1  -6   5   50.09   10.70
   1  -6   5   64.29    9.90
  -2   6  -5    5.30    7.00
  -2   6  -5   16.20    6.80
  -2   6  -5   14.10    3.80
  -2   6  -5   11.60    6.80
   2  -6   5   12.80    3.10
   2  -6   5   -2.40    8.30
   2  -6   5    7.80    5.70
  -3   6  -5  162.48   11.60
  -3   6  -5  173.38   14.00
  -3   6  -5  165.48    9.20
  -3   6  -5  159.58   14.80
   3  -6   5  131.29   16.30
   3  -6   5  170.88   11.00
  -4   6  -5   92.29    7.20
  -4   6  -5   75.69    7.00
   4  -6   5   79.39    8.80
   4  -6   5   79.59   11.40
   4  -6   5   93.39    6.60
   4   5  -5   47.20    2.90
   4   5  -5   41.60    5.40
   4   5  -5   35.90    8.70
   4   5  -5   49.00    6.90
  -4  -5   5   35.50    8.90
  -4  -5   5   28.40   10.00
  -4  -5   5   34.40    6.40
   3   5  -5   36.80    7.00
   3   5  -5   38.50    3.90
   3   5  -5   38.60    6.60
   3   5  -5   37.60    8.50
  -3  -5   5   38.80    9.00
  -3  -5   5   35.30    8.10
  -3  -5   5   37.50   14.10
  -3  -5   5   36.60    5.90
   2   5  -5  236.88   19.30
   2   5  -5  241.88   18.40
   2   5  -5  254.57   17.10
   2   5  -5  246.88   14.10
   2   5  -5  229.58   17.10
   2   5  -5  222.88   18.80
  -2  -5   5  229.98   19.40
  -2  -5   5  241.78   16.10
  -2  -5   5  239.18   21.20
  -2  -5   5  231.18   25.30
   1   5  -5   12.50    4.30
   1   5  -5   18.10    4.00
   1   5  -5   19.60    7.40
   1   5  -5   12.00    9.00
   1   5  -5   16.30    6.30
  -1  -5   5   16.50    5.70
  -1  -5   5   14.90    6.40
  -1  -5   5   14.30    3.40
  -1  -5   5   12.30    9.00
   0   5  -5    6.80    1.90
   0   5  -5    2.80    4.20
   0   5  -5   14.20    3.90
   0  -5   5    2.20    4.40
   0  -5   5   11.50    2.60
   0  -5   5    4.00    4.80
   0  -5   5   -0.70    7.70
  -1   5  -5  514.75   29.50
  -1   5  -5  492.85   27.00
  -1   5  -5  454.45   28.00
  -1   5  -5  479.25   32.80
  -1   5  -5  497.35   33.60
   1  -5   5  401.76   44.10
   1  -5   5  462.15   33.70
   1  -5   5  484.85   28.10
   1  -5   5  595.94   40.30
   1  -5   5  477.45   30.20
  -2   5  -5   -3.40    6.00
  -2   5  -5    2.20    6.70
  -2   5  -5    0.20    2.60
  -2   5  -5   -0.40    6.40
  -2   5  -5    4.30    2.10
  -2   5  -5    3.70    2.50
   2  -5   5    3.40    7.40
   2  -5   5    1.20    2.30
   2  -5   5    2.10    9.40
   2  -5   5    4.10    5.10
   2  -5   5    3.30    5.90
  -3   5  -5   35.00    7.60
  -3   5  -5   32.90    3.70
  -3   5  -5   23.90    4.90
  -3   5  -5   27.70   10.30
   3  -5   5   33.20    4.90
   3  -5   5   22.30    9.80
   3  -5   5   37.10    6.40
  -4   5  -5  120.99    8.00
  -4   5  -5  128.99   11.20
  -4   5  -5  125.99    9.20
  -4   5  -5  117.19   11.10
   4  -5   5  102.09   19.30
   4  -5   5  127.79    9.20
   4  -5   5  133.39   13.90
  -5   5  -5   -0.90    1.30
  -5   5  -5    0.40    1.00
   5  -5   5   -0.50    1.40
   5  -5   5    0.50    4.20
   5   4  -5   81.49    4.80
   5   4  -5   86.19    8.90
  -5  -4   5   77.19    7.90
  -5  -4   5   66.99    6.20
   4   4  -5  276.27   15.70
   4   4  -5  267.87   21.40
   4   4  -5  300.97   17.70
   4   4  -5  274.27   17.20
   4   4  -5  295.47   16.20
  -4  -4   5  269.57   20.70
  -4  -4   5  273.67   18.50
  -4  -4   5  237.68   25.30
  -4  -4   5  244.48   20.20
   3   4  -5   22.30    5.40
   3   4  -5   34.30    4.60
   3   4  -5   41.00    6.80
   3   4  -5   21.70    5.40
  -3  -4   5   29.50   11.50
  -3  -4   5   37.60    6.20
  -3  -4   5   20.50    8.10
   2   4  -5   43.60    7.30
   2   4  -5   31.90    5.70
   2   4  -5   30.40    5.90
   2   4  -5   32.90    6.80
   2   4  -5   36.40    4.40
  -2  -4   5   29.50    8.30
  -2  -4   5   22.90    6.00
  -2  -4   5   39.30    8.50
  -2  -4   5   40.10    7.60
  -2  -4   5   42.60   12.50
   1   4  -5  149.49    9.70
   1   4  -5  158.18   13.70
   1   4  -5  143.89   14.50
   1   4  -5  145.69   11.40
  -1  -4   5  149.09   17.70
  -1  -4   5  154.28   10.90
  -1  -4   5  149.29   12.10
  -1  -4   5  155.68   17.40
   0   4  -5  163.08   11.30
   0   4  -5  186.88   17.50
   0   4  -5  167.28   12.50
   0   4  -5  171.48   10.40
   0   4  -5  159.48   13.70
   0  -4   5  185.18   20.20
   0  -4   5  172.58   11.60
   0  -4   5  166.08   13.80
  -1   4  -5   68.29    5.30
  -1   4  -5   51.89    5.60
  -1   4  -5   65.99    7.50
  -1   4  -5   72.79   11.70
  -1   4  -5   61.49    9.30
   1  -4   5   72.89   13.20
   1  -4   5   77.39    7.10
   1  -4   5   63.29   11.10
   1  -4   5   67.09    8.80
   1  -4   5   86.79   12.40
  -2   4  -5   94.59   11.70
  -2   4  -5   97.79    8.10
  -2   4  -5  102.09   12.50
  -2   4  -5   95.99    7.30
  -2   4  -5   98.89    8.70
  -2   4  -5   93.19   14.30
   2  -4   5   90.09   13.90
   2  -4   5   81.39   19.80
   2  -4   5   97.19   13.20
   2  -4   5   96.79    9.50
   2  -4   5   90.29    7.80
  -3   4  -5  208.68   19.60
  -3   4  -5  224.18   14.60
  -3   4  -5  196.68   13.60
  -3   4  -5  212.48   13.30
  -3   4  -5  219.48   16.80
   3  -4   5  211.68   14.00
   3  -4   5  207.28   16.10
   3  -4   5  196.88   20.80
  -4   4  -5   73.19    8.50
  -4   4  -5   73.49    7.10
  -4   4  -5   63.89    8.40
  -4   4  -5   61.89    9.30
   4  -4   5   86.09   13.20
   4  -4   5   68.49    9.80
   4  -4   5   78.59    7.50
  -5   4  -5    6.20    2.90
  -5   4  -5   15.70    3.10
   5  -4   5   12.80    3.30
   5  -4   5   20.80    7.30
   5   3  -5    6.30    4.30
   5   3  -5    1.40    2.20
  -5  -3   5    3.60    3.40
  -5  -3   5    8.60    4.70
  -5  -3   5   -4.70    3.30
   4   3  -5  525.05   28.90
   4   3  -5  480.85   29.20
   4   3  -5  531.75   29.80
  -4  -3   5  475.35   33.30
  -4  -3   5  489.35   32.80
  -4  -3   5  476.65   38.50
  -4  -3   5  532.95   31.20
   3   3  -5   18.20    3.40
   3   3  -5   22.50    5.50
   3   3  -5   22.80    6.20
   3   3  -5   21.30    5.00
  -3  -3   5   16.20    5.30
  -3  -3   5   16.30    4.80
  -3  -3   5   23.80    6.90
  -3  -3   5   20.20    9.10
  -3  -3   5   27.00   13.90
  -3  -3   5   17.90    5.10
   2   3  -5    3.30    2.70
   2   3  -5    7.40    4.30
   2   3  -5    2.20    3.60
   2   3  -5    1.40    3.30
   2   3  -5    3.80    4.40
  -2  -3   5    2.30    4.80
  -2  -3   5    9.20    3.40
  -2  -3   5    2.30    9.10
  -2  -3   5    1.00    5.90
  -2  -3   5    0.60    4.60
   1   3  -5  239.88   18.50
   1   3  -5  244.48   15.80
   1   3  -5  244.08   15.40
   1   3  -5  251.67   17.90
  -1  -3   5  257.57   22.50
  -1  -3   5  260.27   16.30
  -1  -3   5  242.08   21.30
  -1  -3   5  281.07   18.90
   0   3  -5    1.40    2.70
   0   3  -5   -2.20    7.20
   0   3  -5    5.50    2.00
   0   3  -5    0.00    3.00
   0  -3   5    4.70    5.10
   0  -3   5    3.50    7.00
   0  -3   5    1.10    2.90
  -1   3  -5   31.30    6.10
  -1   3  -5   32.80    3.90
  -1   3  -5   32.50    3.70
  -1   3  -5   34.20    5.20
  -1   3  -5   37.00    4.60
  -1   3  -5   51.19   10.10
   1  -3   5   33.80    6.60
   1  -3   5   34.10    8.80
   1  -3   5   38.50    8.90
   1  -3   5   30.70    6.00
  -2   3  -5  234.88   19.80
  -2   3  -5  260.17   16.30
  -2   3  -5  262.97   17.90
  -2   3  -5  247.18   16.50
  -2   3  -5  272.87   20.70
  -2   3  -5  257.87   15.40
   2  -3   5  246.38   20.90
   2  -3   5  261.47   23.50
   2  -3   5  270.27   22.20
   2  -3   5  255.17   32.00
   2  -3   5  251.77   17.20
   2  -3   5  257.57   16.20
  -3   3  -5    7.40   14.10
  -3   3  -5   12.10    6.50
  -3   3  -5   12.00    3.00
  -3   3  -5   10.10    4.10
  -3   3  -5    6.80    3.40
   3  -3   5   14.50    3.90
   3  -3   5   14.10    5.50
   3  -3   5   -6.30    9.90
   3  -3   5    5.40    6.20
   3  -3   5   10.50    6.20
  -4   3  -5  180.48   13.30
  -4   3  -5  178.38   13.30
  -4   3  -5  169.48   16.80
  -4   3  -5  178.18   12.10
  -4   3  -5  175.98   12.00
   4  -3   5  199.38   13.00
   4  -3   5  178.28   20.20
   4  -3   5  182.68   16.50
  -5   3  -5   16.10    3.90
  -5   3  -5   15.30    2.90
   5  -3   5   24.90    5.30
   5  -3   5   14.80    3.80
   5   2  -5   22.00    8.50
   5   2  -5   15.30    2.80
  -5  -2   5   11.80    4.90
  -5  -2   5    2.10    4.40
  -5  -2   5   17.80    4.00
   4   2  -5  198.68   15.30
   4   2  -5  174.48   12.40
  -4  -2   5  191.98   25.70
  -4  -2   5  170.68   14.60
  -4  -2   5  195.78   19.10
  -4  -2   5  196.58   18.40
  -4  -2   5  187.38   19.50
   3   2  -5  364.56   25.60
   3   2  -5  399.46   23.50
   3   2  -5  353.56   22.30
   3   2  -5  339.17   22.10
  -3  -2   5  407.76   31.70
  -3  -2   5  429.66   28.70
  -3  -2   5  350.16   32.70
  -3  -2   5  368.96   28.90
  -3  -2   5  359.86   24.30
  -3  -2   5  393.26   26.90
  -3  -2   5  413.46   31.00
   2   2  -5   54.29    5.90
   2   2  -5   54.29    8.20
  -2  -2   5   41.60   12.30
  -2  -2   5   67.09    9.20
  -2  -2   5   53.69    8.60
  -2  -2   5   55.09    9.90
  -2  -2   5   60.09    7.30
  -2  -2   5   50.79    9.20
  -2  -2   5   63.49   10.20
   1   2  -5  418.96   28.80
   1   2  -5  438.76   26.60
  -1  -2   5  389.16   30.00
  -1  -2   5  427.76   25.90
  -1  -2   5  429.76   28.80
   0   2  -5  242.98   22.80
   0   2  -5  265.67   17.90
   0   2  -5  264.57   15.90
   0  -2   5  282.07   23.10
   0  -2   5  258.17   17.00
   0  -2   5  253.87   19.90
  -1   2  -5   36.70    4.50
  -1   2  -5   27.80    5.60
   1  -2   5   41.80    6.60
   1  -2   5   41.40    9.40
   1  -2   5   41.60    9.80
   1  -2   5   38.70    6.80
  -2   2  -5   53.59    6.10
  -2   2  -5   64.89   10.50
  -2   2  -5   47.40    7.80
   2  -2   5   53.29    5.20
   2  -2   5   41.30    8.60
   2  -2   5   53.99    7.90
   2  -2   5   71.99   11.80
   2  -2   5   54.69   13.70
  -3   2  -5  265.67   19.90
  -3   2  -5  247.38   16.10
  -3   2  -5  253.87   16.90
  -3   2  -5  249.97   16.40
  -3   2  -5  254.07   15.60
   3  -2   5  226.68   29.10
   3  -2   5  256.17   16.60
   3  -2   5  260.47   22.90
   3  -2   5  241.58   15.00
   3  -2   5  260.77   17.60
   3  -2   5  251.27   20.40
  -4   2  -5   82.09    7.70
  -4   2  -5   90.09    8.90
  -4   2  -5   76.99    7.40
  -4   2  -5   84.99    9.70
   4  -2   5   97.09    8.20
   4  -2   5   87.39   15.90
   4  -2   5   83.29   10.80
   4  -2   5   74.19   12.30
   4  -2   5   81.49    6.60
  -5   2  -5   99.99    8.80
   5  -2   5  100.19    8.20
   5  -2   5   97.09    7.30
   5  -2   5   92.19   10.20
  -6   2  -5    4.00    1.90
  -6   2  -5    4.00    1.90
   6  -2   5    1.70    1.10
   6  -2   5    4.10    1.70
   5   1  -5    0.20    3.30
   5   1  -5    0.30    6.60
  -5  -1   5    1.40    2.70
  -5  -1   5   -3.90    3.30
  -5  -1   5    2.20    3.40
   4   1  -5   54.09    7.30
   4   1  -5   35.40    7.00
   4   1  -5   62.09    6.30
   4   1  -5   46.10    5.90
  -4  -1   5   31.00    8.80
  -4  -1   5   61.19    7.40
  -4  -1   5   38.10    8.60
  -4  -1   5   19.80   12.00
  -4  -1   5   49.20    6.40
  -4  -1   5   63.29   10.00
   3   1  -5  525.25   33.10
   3   1  -5  601.24   33.90
   3   1  -5  573.54   33.50
   3   1  -5  571.24   33.10
   3   1  -5  614.04   37.20
  -3  -1   5  541.05   40.90
  -3  -1   5  575.84   34.70
  -3  -1   5  608.74   43.00
  -3  -1   5  617.44   41.40
  -3  -1   5  548.15   36.90
  -3  -1   5  569.94   35.80
  -3  -1   5  590.54   39.30
  -3  -1   5  561.44   33.70
   2   1  -5   18.70    3.70
   2   1  -5   20.80    5.80
  -2  -1   5   14.80    4.90
  -2  -1   5   29.20    6.60
  -2  -1   5   13.90    5.40
  -2  -1   5   18.00    6.60
  -2  -1   5   18.30    9.20
   1   1  -5   69.39    7.20
   1   1  -5   69.79    9.80
   1   1  -5   59.89    6.50
  -1  -1   5   81.09   10.70
  -1  -1   5   70.89    8.50
  -1  -1   5   51.79    6.50
  -1  -1   5   50.49    9.50
   0   1  -5  211.98   13.30
   0   1  -5  211.48   20.40
   0   1  -5  206.88   14.20
   0  -1   5  179.18   18.70
   0  -1   5  223.48   15.20
   0  -1   5  252.87   18.70
  -1   1  -5    6.60    2.70
  -1   1  -5    9.60    3.60
  -1   1  -5    7.20    3.50
  -1   1  -5   11.60    8.70
   1  -1   5   12.50    5.50
   1  -1   5    4.10    6.80
   1  -1   5    7.50    5.00
  -2   1  -5   76.49    7.50
  -2   1  -5   73.59    8.00
   2  -1   5   83.59   10.60
   2  -1   5   80.49   15.40
   2  -1   5   74.69   10.70
   2  -1   5   92.89   10.70
   2  -1   5   81.89    8.20
  -3   1  -5   56.69    7.70
  -3   1  -5   59.39    6.50
  -3   1  -5   55.29    6.90
  -3   1  -5   55.19    5.40
   3  -1   5   74.89   12.60
   3  -1   5   68.49   11.60
   3  -1   5   58.59    8.80
   3  -1   5   51.89    4.40
   3  -1   5   52.79    5.80
   3  -1   5   83.19   10.10
   3  -1   5   82.29   16.30
  -4   1  -5  205.78   15.90
  -4   1  -5  219.18   15.80
  -4   1  -5  233.88   15.30
   4  -1   5  214.98   14.00
   4  -1   5  278.87   20.30
   4  -1   5  229.98   15.30
   4  -1   5  242.48   23.10
  -5   1  -5  363.46   22.40
  -5   1  -5  358.06   22.70
  -5   1  -5  362.46   22.50
   5  -1   5  422.46   23.20
   5  -1   5  382.16   21.60
  -6   1  -5   37.20    4.70
  -6   1  -5   30.30    4.00
   6  -1   5   40.30    4.10
   5   0  -5    2.00    2.70
   5   0  -5    3.70    6.50
  -5   0   5    3.40    7.40
  -5   0   5    2.80    3.00
  -5   0   5    1.40    3.50
   4   0  -5   47.20    7.30
   4   0  -5   49.90    6.40
   4   0  -5   65.49    8.90
  -4   0   5   54.79    7.80
  -4   0   5   55.79   11.90
  -4   0   5   57.59    7.50
  -4   0   5   57.69    8.40
  -4   0   5   60.79   10.10
   3   0  -5    2.30    3.20
   3   0  -5    2.30    2.80
   3   0  -5    5.30    5.70
   3   0  -5   -0.90    3.30
  -3   0   5    3.00    2.80
  -3   0   5   -1.20    8.90
  -3   0   5    1.30    4.80
  -3   0   5    7.60    6.10
  -3   0   5    0.80    3.20
  -3   0   5   -2.60    3.90
  -3   0   5   -3.20    4.70
   2   0  -5  229.78   15.60
   2   0  -5  251.17   20.60
   2   0  -5  251.57   19.30
   2   0  -5  264.87   16.10
   2   0  -5  235.88   16.30
  -2   0   5  239.98   17.70
  -2   0   5  253.87   21.10
  -2   0   5  250.67   16.20
  -2   0   5  248.88   16.90
  -2   0   5  253.07   20.70
  -2   0   5  258.37   20.10
   1   0  -5 1336.37   78.19
   1   0  -5 1332.27   72.79
   1   0  -5 1309.07   73.89
   1   0  -5 1317.27   74.89
  -1   0   5 1376.56   78.19
  -1   0   5 1419.56   73.39
  -1   0   5 1329.47   76.99
  -1   0   5 1311.57   75.39
  -1   0   5 1345.87   73.79
   0   0  -5  542.25   37.00
   0   0  -5  518.45   31.50
   0   0  -5  539.85   30.80
   0   0  -5  559.04   33.10
   0   0   5  612.54   35.10
   0   0   5  540.25   32.00
   0   0   5  535.25   35.90
   0   0   5  592.04   32.20
  -1   0  -5   22.70    3.60
  -1   0  -5   16.60    3.70
  -1   0  -5   14.30    8.60
  -1   0  -5   31.50    6.80
   1   0   5   29.50    8.60
   1   0   5   14.40    5.70
   1   0   5   29.90    6.00
  -2   0  -5    7.70    2.50
  -2   0  -5    2.50    7.40
  -2   0  -5    7.50    4.10
  -2   0  -5    9.60    3.50
  -2   0  -5   15.70    5.60
  -2   0  -5   14.30    6.30
   2   0   5   11.20    5.30
   2   0   5    6.10    2.70
   2   0   5    8.40    6.00
   2   0   5    6.20    6.40
   2   0   5    5.60    6.30
  -3   0  -5  147.69   11.90
  -3   0  -5  174.88   12.60
  -3   0  -5  144.39   10.10
  -3   0  -5  125.69   10.70
  -3   0  -5  139.49   15.80
  -3   0  -5  172.58   15.60
   3   0   5  156.78   13.00
   3   0   5  158.78   20.10
   3   0   5  171.18   15.80
   3   0   5  121.49    9.80
   3   0   5  138.09    9.80
   3   0   5  121.39    9.40
   3   0   5  167.78   16.90
  -4   0  -5  870.91   47.80
  -4   0  -5  796.62   45.60
  -4   0  -5  784.22   47.40
   4   0   5  828.62   52.39
   4   0   5  832.82   46.40
   4   0   5  818.62   47.00
   4   0   5  824.32   44.90
  -5   0  -5   56.19    6.70
  -5   0  -5   48.20    6.20
  -5   0  -5   42.90    6.30
   5   0   5   53.39    5.50
   5   0   5   53.09    5.60
  -6   0  -5   54.49    5.00
   6   0   5   64.09    4.60
   5  -1  -5   28.30    4.70
   5  -1  -5   35.60    4.20
  -5   1   5   31.10    4.30
  -5   1   5   20.30    9.00
  -5   1   5   24.00    5.60
   4  -1  -5   48.80    9.40
   4  -1  -5   46.80    6.50
   4  -1  -5   40.20    7.30
  -4   1   5   56.59    7.30
  -4   1   5   45.10    9.50
  -4   1   5   37.30    5.60
  -4   1   5   44.60   11.10
   3  -1  -5    8.80    4.40
   3  -1  -5   -1.20    6.10
   3  -1  -5    8.20    4.20
   3  -1  -5    6.20    4.70
   3  -1  -5    3.40    5.90
   3  -1  -5    2.40    6.50
  -3   1   5    0.50    5.80
  -3   1   5    4.50    4.40
  -3   1   5    6.60    6.10
  -3   1   5    3.20    4.70
  -3   1   5    7.10    4.10
   2  -1  -5 1084.49   66.69
   2  -1  -5 1196.98   66.49
   2  -1  -5 1165.18   73.79
   2  -1  -5 1237.88   69.79
  -2   1   5 1252.87   65.89
  -2   1   5 1202.78   66.29
  -2   1   5 1243.18   70.49
  -2   1   5 1230.68   66.39
  -2   1   5 1280.27   73.49
  -2   1   5 1231.28   67.69
  -2   1   5 1151.58   65.99
  -2   1   5 1210.88   69.59
   1  -1  -5   90.99    7.00
   1  -1  -5   90.09   10.10
   1  -1  -5   85.69   14.20
   1  -1  -5  117.49   12.10
   1  -1  -5   94.89    8.30
  -1   1   5   96.69    9.10
  -1   1   5  114.49   12.90
  -1   1   5   71.19   10.00
  -1   1   5   72.99    9.00
  -1   1   5   83.09    8.20
   0  -1  -5 5237.28  290.27
   0  -1  -5 5229.18  283.37
   0  -1  -5 5422.36  285.27
   0   1   5 5440.26  287.47
   0   1   5 5532.25  285.67
  -1  -1  -5  452.35   26.80
  -1  -1  -5  498.35   35.70
  -1  -1  -5  459.35   27.60
  -1  -1  -5  478.95   29.90
  -1  -1  -5  462.65   26.20
   1   1   5  438.76   29.50
   1   1   5  464.15   29.20
  -2  -1  -5  878.61   49.90
  -2  -1  -5  847.02   52.19
  -2  -1  -5  901.31   50.59
  -2  -1  -5  938.21   61.19
   2   1   5  922.81   53.99
   2   1   5  859.21   53.89
   2   1   5  886.01   54.79
   2   1   5  914.11   49.50
   2   1   5  874.41   49.70
   2   1   5  936.61   52.29
  -3  -1  -5  348.07   23.50
  -3  -1  -5  367.96   21.80
  -3  -1  -5  380.86   23.70
  -3  -1  -5  391.46   30.90
  -3  -1  -5  388.96   28.50
  -3  -1  -5  372.36   22.90
  -3  -1  -5  361.76   23.90
   3   1   5  366.96   22.20
   3   1   5  382.76   27.20
   3   1   5  363.46   23.30
   3   1   5  345.97   31.50
   3   1   5  359.46   22.10
   3   1   5  375.56   21.10
   3   1   5  417.06   22.70
  -4  -1  -5  230.48   17.40
  -4  -1  -5  228.68   16.80
  -4  -1  -5  257.87   19.40
  -4  -1  -5  253.27   25.80
  -4  -1  -5  232.78   17.60
  -4  -1  -5  240.68   15.60
  -4  -1  -5  245.78   22.30
   4   1   5  218.48   15.50
   4   1   5  261.77   21.30
   4   1   5  231.08   14.30
   4   1   5  230.28   15.70
  -5  -1  -5   51.19    6.70
  -5  -1  -5   45.40    6.60
  -5  -1  -5   46.10    5.70
   5   1   5   38.90    5.40
   5   1   5   48.60    4.80
  -6  -1  -5   35.30    4.30
  -6  -1  -5   34.50    4.70
   6   1   5   49.70    3.90
   5  -2  -5   10.90    3.00
   5  -2  -5    4.00    2.70
  -5   2   5    4.50    3.20
  -5   2   5    5.60    1.90
  -5   2   5    1.30    4.80
   4  -2  -5  730.33   41.90
   4  -2  -5  695.93   44.30
   4  -2  -5  681.13   40.20
   4  -2  -5  629.84   39.00
  -4   2   5  736.53   39.80
  -4   2   5  687.83   39.30
  -4   2   5  733.93   50.79
  -4   2   5  639.04   42.10
   3  -2  -5   14.50    6.10
   3  -2  -5   15.20    7.90
   3  -2  -5   15.50    7.50
   3  -2  -5   13.00    9.50
   3  -2  -5    7.50    4.60
   3  -2  -5    7.80    3.70
  -3   2   5   12.30    7.20
  -3   2   5    8.40    6.30
  -3   2   5   11.50    3.50
  -3   2   5   13.40    3.60
  -3   2   5   18.80    4.90
   2  -2  -5 1038.60   65.79
   2  -2  -5  862.01   57.09
   2  -2  -5 1081.69   60.29
   2  -2  -5 1051.69   65.79
   2  -2  -5 1137.19   58.49
  -2   2   5  907.91   55.89
  -2   2   5 1092.59   55.79
  -2   2   5  922.91   55.79
  -2   2   5 1042.40   63.49
  -2   2   5 1101.79   57.99
   1  -2  -5 1018.70   58.59
   1  -2  -5 1109.79   68.19
   1  -2  -5 1090.19   59.99
   1  -2  -5 1170.48   63.09
  -1   2   5 1056.99   64.29
  -1   2   5 1077.39   61.69
  -1   2   5 1116.39   60.29
   0  -2  -5  325.37   20.20
   0  -2  -5  375.36   21.60
   0  -2  -5  323.67   27.00
   0  -2  -5  329.37   19.40
   0   2   5  338.27   23.20
   0   2   5  341.27   20.30
   0   2   5  320.27   24.00
   0   2   5  344.97   22.10
  -1  -2  -5   99.59    6.70
  -1  -2  -5  112.39    9.10
  -1  -2  -5  109.99   11.20
  -1  -2  -5  112.09   13.40
  -1  -2  -5  107.09   16.20
   1   2   5  100.59   13.30
   1   2   5  120.69   13.00
   1   2   5  118.49   13.10
   1   2   5  117.69    7.40
   1   2   5  102.49   10.70
  -2  -2  -5  611.74   36.40
  -2  -2  -5  626.44   39.70
  -2  -2  -5  617.54   35.30
  -2  -2  -5  650.03   44.00
  -2  -2  -5  576.54   44.40
   2   2   5  612.54   38.90
  -3  -2  -5   98.59   14.60
  -3  -2  -5   81.49    8.70
  -3  -2  -5   96.59    9.10
  -3  -2  -5  110.89   19.50
  -3  -2  -5   91.09   11.40
  -3  -2  -5   94.39   14.50
  -3  -2  -5   97.69    8.80
   3   2   5  103.59   13.50
   3   2   5   93.99    6.90
   3   2   5   94.49    9.30
   3   2   5   97.29    8.90
  -4  -2  -5  282.27   20.90
  -4  -2  -5  255.77   18.00
  -4  -2  -5  250.57   18.10
  -4  -2  -5  304.67   26.50
  -4  -2  -5  231.48   17.50
  -4  -2  -5  264.77   29.10
   4   2   5  255.27   16.60
   4   2   5  259.57   15.10
   4   2   5  219.38   15.90
   4   2   5  276.97   21.80
  -5  -2  -5    3.20    4.80
  -5  -2  -5   15.40    6.50
  -5  -2  -5    0.90    7.40
  -5  -2  -5    2.10    4.50
  -5  -2  -5    3.30    3.30
  -5  -2  -5    3.90    5.40
   5   2   5    3.90    1.90
   5   2   5    6.60    3.00
   5   2   5   -0.60    1.90
  -6  -2  -5    8.40    2.00
  -6  -2  -5    7.40    3.70
   6   2   5    6.30    2.20
   5  -3  -5   30.00    3.70
   5  -3  -5   23.10    4.90
  -5   3   5   30.20    4.00
  -5   3   5   16.40    4.60
   4  -3  -5  634.14   36.60
   4  -3  -5  695.73   43.60
   4  -3  -5  566.14   34.80
   4  -3  -5  589.44   37.50
  -4   3   5  604.64   38.30
  -4   3   5  538.35   44.50
  -4   3   5  590.04   35.20
  -4   3   5  668.23   35.40
  -4   3   5  617.44   36.80
   3  -3  -5  755.12   44.90
   3  -3  -5  733.43   54.99
   3  -3  -5  758.32   45.10
   3  -3  -5  741.63   43.10
   3  -3  -5  744.23   57.49
   3  -3  -5  778.02   49.90
  -3   3   5  760.42   43.70
  -3   3   5  827.82   54.29
  -3   3   5  782.82   42.70
  -3   3   5  765.02   45.60
  -3   3   5  784.42   44.20
  -3   3   5  728.63   42.80
   2  -3  -5  457.25   35.70
   2  -3  -5  453.65   27.10
   2  -3  -5  435.06   34.40
   2  -3  -5  466.15   31.30
  -2   3   5  450.65   29.00
  -2   3   5  364.96   30.90
  -2   3   5  380.66   25.00
  -2   3   5  415.06   26.30
  -2   3   5  415.06   24.50
   1  -3  -5  166.98   13.10
   1  -3  -5  143.99   15.20
  -1   3   5  173.08   12.80
  -1   3   5  221.38   18.20
  -1   3   5  196.78   12.50
   0  -3  -5  148.89   14.20
   0  -3  -5  143.99   19.10
   0  -3  -5  146.69   11.70
   0  -3  -5  163.58    9.80
   0   3   5  158.58   10.50
   0   3   5  149.88   12.50
   0   3   5  160.78   16.00
   0   3   5  153.38   12.40
  -1  -3  -5   10.80    5.20
  -1  -3  -5   13.90    6.80
  -1  -3  -5    9.80    3.00
  -1  -3  -5    9.30    7.90
   1   3   5    8.40    7.00
   1   3   5   10.90    5.90
  -2  -3  -5   48.60    7.90
  -2  -3  -5   31.20    9.80
  -2  -3  -5   39.30    8.40
  -2  -3  -5   51.69    6.00
  -2  -3  -5   58.19   11.80
   2   3   5   45.90    8.20
  -3  -3  -5   11.70    4.00
  -3  -3  -5    8.20    6.30
  -3  -3  -5   10.50    3.90
  -3  -3  -5   11.40    8.60
  -3  -3  -5   -0.40    7.20
  -3  -3  -5   11.90    5.10
  -3  -3  -5   12.40    4.60
   3   3   5    5.20    4.30
   3   3   5   13.60    2.50
   3   3   5   11.10    5.70
   3   3   5    8.70    5.00
   3   3   5    9.70    2.00
   3   3   5   15.40    2.70
  -4  -3  -5  676.73   40.70
  -4  -3  -5  671.73   55.69
  -4  -3  -5  726.33   41.30
  -4  -3  -5  698.93   40.30
  -4  -3  -5  668.43   47.20
  -4  -3  -5  606.64   44.20
   4   3   5  736.23   38.10
   4   3   5  700.13   38.40
   4   3   5  732.13   40.10
   4   3   5  700.03   45.10
  -5  -3  -5   79.09    7.90
  -5  -3  -5   80.09    8.40
  -5  -3  -5   91.09   15.30
  -5  -3  -5   88.29   13.00
  -5  -3  -5   73.59    9.60
   5   3   5   81.59    6.50
   5   3   5   60.69    5.80
   5   3   5   86.29    8.30
  -6  -3  -5   -0.30    2.20
   6   3   5    0.20    1.40
   5  -4  -5   40.50    5.70
  -5   4   5   33.70    8.10
  -5   4   5   34.70    4.50
   4  -4  -5   70.99   14.80
   4  -4  -5   37.30    6.50
   4  -4  -5   38.80    8.50
  -4   4   5   49.20    6.00
  -4   4   5   53.09    6.10
  -4   4   5   55.29    8.20
  -4   4   5   44.30    8.20
   3  -4  -5  672.13   45.90
   3  -4  -5  670.03   38.80
   3  -4  -5  639.04   49.10
   3  -4  -5  630.24   49.99
   3  -4  -5  578.24   37.60
  -3   4   5  635.14   37.50
  -3   4   5  622.14   45.90
  -3   4   5  633.84   37.50
  -3   4   5  614.64   37.80
  -3   4   5  648.64   35.50
  -3   4   5  538.85   35.40
  -3   4   5  620.34   36.40
   2  -4  -5   16.30    8.40
   2  -4  -5   23.20   10.30
   2  -4  -5   14.00    8.70
   2  -4  -5   25.70    5.20
   2  -4  -5   31.20    7.30
  -2   4   5   21.00    4.10
  -2   4   5   24.00    9.10
  -2   4   5   22.60    4.30
  -2   4   5   26.80    4.60
  -2   4   5   36.10    6.30
  -2   4   5   20.60    8.10
  -2   4   5   33.20    6.90
   1  -4  -5    3.20    5.60
   1  -4  -5    1.10    3.70
   1  -4  -5    1.90    5.60
  -1   4   5    4.30    2.70
  -1   4   5   -0.40    2.30
  -1   4   5   -1.10    2.00
  -1   4   5    1.80    2.10
  -1   4   5    3.90    7.30
  -1   4   5    2.20    1.70
   0  -4  -5   71.39    5.30
   0  -4  -5   69.39   10.30
   0  -4  -5   71.29    8.10
   0  -4  -5   70.59   12.90
   0   4   5   76.79   10.50
   0   4   5   72.89    7.60
  -1  -4  -5   -1.70    6.10
  -1  -4  -5    6.20    3.40
  -1  -4  -5    0.90    6.20
  -1  -4  -5    5.10    2.40
   1   4   5    2.70    4.80
   1   4   5    1.20    6.80
  -2  -4  -5   63.59   12.90
  -2  -4  -5   53.29    7.90
  -2  -4  -5   50.69    6.10
  -2  -4  -5   50.79   10.20
  -2  -4  -5   43.00   12.00
   2   4   5   36.30    4.30
   2   4   5   46.20    7.20
   2   4   5   31.90    3.80
   2   4   5   45.00    6.50
   2   4   5   40.20    8.60
  -3  -4  -5  101.09    9.50
  -3  -4  -5  100.29    9.30
  -3  -4  -5  107.49   17.90
  -3  -4  -5  124.39   16.50
  -3  -4  -5  122.89   18.10
  -3  -4  -5  117.69   12.40
  -3  -4  -5  111.39   10.50
   3   4   5  103.29    7.60
   3   4   5  107.79    7.40
   3   4   5  126.89   14.70
   3   4   5  105.09    9.50
   3   4   5  126.09   10.80
  -4  -4  -5   88.19    9.30
  -4  -4  -5   69.49   11.50
  -4  -4  -5   84.49    9.70
  -4  -4  -5   82.39    9.60
  -4  -4  -5   67.79   15.00
   4   4   5   71.39   10.20
   4   4   5   74.19   12.40
   4   4   5   82.59    6.50
   4   4   5   79.39   11.10
   4   4   5   85.69    6.40
  -5  -4  -5  255.37   16.40
  -5  -4  -5  244.38   18.10
  -5  -4  -5  210.48   21.40
  -5  -4  -5  238.88   17.10
   5   4   5  238.08   14.30
   5   4   5  244.08   14.10
   5   4   5  259.37   16.50
  -6  -4  -5   11.40    2.80
   6   4   5   15.10    2.10
   6   4   5   18.00    3.10
   6   4   5   11.70    1.40
   5  -5  -5   10.00    2.70
   4  -5  -5    9.10    6.60
   4  -5  -5   11.20   11.20
   4  -5  -5   12.20    4.20
  -4   5   5    6.60    6.00
  -4   5   5    4.60    3.60
  -4   5   5    6.80    4.90
  -4   5   5    8.80    4.10
   3  -5  -5   40.70   14.60
   3  -5  -5   37.60    7.00
   3  -5  -5   46.30    8.30
  -3   5   5   46.50    5.50
  -3   5   5   51.49   12.50
  -3   5   5   49.30    7.80
  -3   5   5   40.40    6.00
  -3   5   5   37.50    7.60
  -3   5   5   38.50    8.30
  -3   5   5   39.30    5.80
   2  -5  -5  378.36   31.80
   2  -5  -5  359.46   36.30
   2  -5  -5  371.26   34.00
   2  -5  -5  424.36   28.00
   2  -5  -5  403.76   26.40
  -2   5   5  434.96   25.20
  -2   5   5  472.75   34.90
  -2   5   5  432.06   26.70
  -2   5   5  405.86   30.40
  -2   5   5  503.15   27.50
  -2   5   5  412.86   27.10
  -2   5   5  421.96   24.80
   1  -5  -5  468.85   32.90
   1  -5  -5  447.96   28.30
   1  -5  -5  440.36   38.20
   1  -5  -5  396.86   31.30
   1  -5  -5  480.55   28.30
  -1   5   5  514.15   36.00
  -1   5   5  470.65   27.40
  -1   5   5  485.65   29.10
  -1   5   5  477.55   26.20
  -1   5   5  454.05   26.90
  -1   5   5  500.55   32.20
   0  -5  -5   94.09    9.40
   0  -5  -5  106.79   12.00
   0  -5  -5  103.39   17.30
   0   5   5  115.79   10.80
   0   5   5  100.99   11.40
   0   5   5  105.69    6.80
   0   5   5  105.09    7.90
   0   5   5  106.89    8.80
   0   5   5  106.79    8.30
   0   5   5  126.39   15.90
  -1  -5  -5  311.77   30.50
  -1  -5  -5  350.86   25.10
  -1  -5  -5  355.86   20.70
  -1  -5  -5  349.47   22.50
   1   5   5  372.06   23.60
   1   5   5  355.56   23.80
   1   5   5  364.16   21.70
   1   5   5  359.76   31.00
   1   5   5  327.07   19.10
   1   5   5  326.67   20.10
  -2  -5  -5   94.69   15.70
  -2  -5  -5   81.09    7.00
  -2  -5  -5   68.89    8.00
  -2  -5  -5   60.99    9.30
  -2  -5  -5   60.99   11.40
  -2  -5  -5   52.49   12.90
   2   5   5   71.79    6.00
   2   5   5   59.99    9.30
   2   5   5   81.79   15.70
   2   5   5   67.19    7.10
   2   5   5   71.59    9.50
   2   5   5   68.49    5.00
   2   5   5   64.59    8.00
  -3  -5  -5   61.09    8.30
  -3  -5  -5   63.29   13.00
  -3  -5  -5   50.39    6.50
  -3  -5  -5   82.49   19.10
  -3  -5  -5   65.89    8.40
  -3  -5  -5   70.49   13.20
  -3  -5  -5   56.19    6.50
   3   5   5   65.69   11.00
   3   5   5   58.59   10.20
   3   5   5   55.69    5.00
   3   5   5   62.59    8.50
   3   5   5   51.79    5.80
  -4  -5  -5    2.00   10.10
  -4  -5  -5    1.30    5.30
  -4  -5  -5    3.30    4.10
  -4  -5  -5    6.70    4.10
  -4  -5  -5    0.60    4.20
   4   5   5    4.10    4.90
   4   5   5    4.00    2.10
   4   5   5   10.00    6.40
   4   5   5    2.70    4.20
   4   5   5    1.00    2.70
  -5  -5  -5   47.60    9.30
  -5  -5  -5   82.39   22.30
  -5  -5  -5   65.79    7.70
   5   5   5   66.39    5.00
   5   5   5   52.59    5.20
   5   5   5   59.39    7.30
   5   5   5   58.49    6.80
   4  -6  -5    3.40    4.40
   4  -6  -5   -4.50    6.60
   4  -6  -5   -0.10    2.30
  -4   6   5   -0.20    2.60
  -4   6   5   -0.40    3.90
  -4   6   5   -3.60    3.00
   3  -6  -5   18.20    5.10
   3  -6  -5    7.30   11.90
   3  -6  -5    7.60    7.00
  -3   6   5    5.60    7.50
  -3   6   5   10.90    4.00
  -3   6   5   24.90    7.90
  -3   6   5   14.90    3.40
  -3   6   5   15.80    4.20
  -3   6   5   14.40    5.60
  -3   6   5   15.20    6.70
   2  -6  -5  228.18   16.90
   2  -6  -5  224.18   24.30
   2  -6  -5  246.18   19.70
  -2   6   5  258.37   15.10
  -2   6   5  276.67   25.40
  -2   6   5  241.48   17.00
  -2   6   5  256.27   18.80
  -2   6   5  253.97   19.90
  -2   6   5  252.17   17.00
  -2   6   5  249.78   21.90
   1  -6  -5   30.40    9.80
   1  -6  -5   35.30    6.60
   1  -6  -5   28.10    9.40
   1  -6  -5   42.30    5.20
  -1   6   5   46.40    7.00
  -1   6   5   50.19    8.50
  -1   6   5   32.20   10.60
  -1   6   5   43.00    4.90
  -1   6   5   52.79   12.50
  -1   6   5   34.10    8.50
   0  -6  -5  581.54   48.90
   0  -6  -5  647.14   40.20
   0  -6  -5  626.34   37.60
   0   6   5  650.93   36.60
   0   6   5  652.73   38.50
   0   6   5  687.73   41.00
   0   6   5  681.83   47.30
   0   6   5  660.63   36.80
   0   6   5  641.44   37.90
   0   6   5  636.44   36.50
   0   6   5  648.94   35.00
  -1  -6  -5  164.48   15.50
  -1  -6  -5  178.88   13.80
  -1  -6  -5  191.78   21.60
   1   6   5  165.88   13.40
   1   6   5  158.98   11.40
   1   6   5  152.38   11.00
   1   6   5  160.68   13.60
   1   6   5  172.88   14.80
   1   6   5  183.88   13.20
   1   6   5  167.88    9.70
   1   6   5  163.28   20.50
   1   6   5  182.88   12.70
  -2  -6  -5    6.80    7.50
  -2  -6  -5   17.00    5.90
  -2  -6  -5   16.90    7.60
  -2  -6  -5    9.50    4.30
   2   6   5    6.60    5.70
   2   6   5    6.50    5.70
   2   6   5   11.10    1.80
   2   6   5    9.00   11.20
   2   6   5   14.20    3.10
   2   6   5   12.00    4.80
   2   6   5   10.30    3.90
  -3  -6  -5   42.80    5.90
  -3  -6  -5   43.50    6.60
  -3  -6  -5   46.00    7.90
  -3  -6  -5   42.20   11.60
   3   6   5   43.20    3.70
   3   6   5   41.80    9.00
   3   6   5   49.30    9.50
   3   6   5   41.60    7.90
   3   6   5   44.10    5.60
   3   6   5   43.30    4.70
   3   6   5   49.10    7.00
  -4  -6  -5   -8.30    8.70
  -4  -6  -5   -2.00    4.80
  -4  -6  -5   -1.80    6.90
  -4  -6  -5    2.20    2.70
   4   6   5    2.80    4.70
   4   6   5   -2.60    2.70
   4   6   5    2.70    1.40
   4   6   5    2.90    2.90
   4   6   5    9.60    6.10
  -5  -6  -5    2.30    3.10
  -5  -6  -5   -1.10    3.00
  -5  -6  -5   -1.90    5.90
  -5  -6  -5    5.70    6.70
   5   6   5    1.60    1.50
   5   6   5   -1.30    3.60
   5   6   5    0.70    4.70
   5   6   5    1.60    4.50
   4  -7  -5   31.10    6.50
   4  -7  -5   18.10    2.90
   4  -7  -5   37.40   10.40
  -4   7   5   21.30    4.60
  -4   7   5   19.90    4.00
   3  -7  -5   31.70   13.20
   3  -7  -5   51.19    5.60
   3  -7  -5   35.50    7.60
  -3   7   5   57.89    6.40
  -3   7   5   29.30    7.20
  -3   7   5   29.50    8.50
  -3   7   5   42.10    3.90
  -3   7   5   37.70    5.40
   2  -7  -5   29.20   11.40
   2  -7  -5   22.40    7.00
   2  -7  -5   27.90    5.10
  -2   7   5   35.80   11.30
  -2   7   5   33.10    6.10
  -2   7   5   30.20    8.70
  -2   7   5   25.30    6.20
  -2   7   5   38.80    8.90
  -2   7   5   33.30    7.10
   1  -7  -5  170.98   18.10
   1  -7  -5  184.08   14.50
  -1   7   5  174.78   20.80
  -1   7   5  171.98   16.30
  -1   7   5  162.98   13.20
  -1   7   5  185.88   18.70
  -1   7   5  188.18   15.90
  -1   7   5  157.08   12.20
   0  -7  -5  384.56   50.89
   0  -7  -5  489.65   33.10
   0  -7  -5  459.65   29.40
   0   7   5  515.95   31.80
   0   7   5  500.55   30.70
   0   7   5  510.95   46.10
   0   7   5  505.35   28.60
   0   7   5  515.15   33.60
   0   7   5  484.15   28.70
  -1  -7  -5  396.66   36.50
  -1  -7  -5  389.76   28.40
  -1  -7  -5  394.36   25.60
   1   7   5  433.36   25.50
   1   7   5  408.56   28.40
   1   7   5  393.06   24.90
   1   7   5  393.56   24.10
   1   7   5  402.66   26.90
   1   7   5  387.76   23.70
   1   7   5  460.15   38.60
  -2  -7  -5   84.99   14.00
  -2  -7  -5  101.29    9.00
  -2  -7  -5   83.19   10.70
   2   7   5  104.49   14.70
   2   7   5  107.89   11.90
   2   7   5  106.29    8.50
   2   7   5  104.49   12.30
   2   7   5  121.69    8.90
   2   7   5   98.79   10.40
  -3  -7  -5   48.90    6.90
  -3  -7  -5   45.40    8.90
  -3  -7  -5   47.20   11.50
   3   7   5   35.40    6.30
   3   7   5   49.60    9.40
   3   7   5   43.00    6.70
   3   7   5   54.99    5.40
   3   7   5   50.39   10.20
   3   7   5   72.09    7.10
  -4  -7  -5   16.50    9.80
  -4  -7  -5   28.20    6.30
  -4  -7  -5   31.60    6.20
  -4  -7  -5   29.10    4.20
   4   7   5   21.60    4.00
   4   7   5   21.60    3.70
   4   7   5   32.30    7.80
   4   7   5   26.90    5.30
  -5  -7  -5    4.20    3.70
  -5  -7  -5    1.70    1.30
   5   7   5   -0.50    1.40
   5   7   5    0.70    2.90
   5   7   5    1.10    2.20
   5   7   5    1.00    1.90
   3  -8  -5    9.30    7.60
   3  -8  -5    7.20    3.00
   3  -8  -5    4.30    4.10
  -3   8   5    4.60    4.90
  -3   8   5    7.50    3.20
  -3   8   5    4.90    2.80
  -3   8   5    6.90    5.30
   2  -8  -5   89.29   16.60
  -2   8   5  141.59   10.80
  -2   8   5  158.78   10.80
  -2   8   5  128.49   12.40
  -2   8   5  120.59   12.70
   1  -8  -5   69.49   12.50
   1  -8  -5   78.59   10.50
  -1   8   5   90.49   15.00
  -1   8   5   73.09   10.80
  -1   8   5   72.59   14.50
  -1   8   5   74.09   12.30
   0  -8  -5   21.00    5.30
   0  -8  -5   12.60    6.50
   0   8   5   28.70    6.00
   0   8   5   19.10    6.80
   0   8   5   16.70    7.00
   0   8   5   18.50    5.30
   0   8   5   34.90   10.80
   0   8   5   25.30    4.90
  -1  -8  -5  620.64   36.80
  -1  -8  -5  576.74   38.90
   1   8   5  631.54   36.70
   1   8   5  644.04   50.89
   1   8   5  607.04   35.10
   1   8   5  628.14   34.90
   1   8   5  622.04   37.50
   1   8   5  612.04   35.20
   1   8   5  618.24   38.80
  -2  -8  -5   19.30    6.10
  -2  -8  -5   20.10    7.30
   2   8   5    3.10   13.50
   2   8   5   28.50    4.50
   2   8   5   25.00    4.50
   2   8   5   17.90    5.60
   2   8   5   23.20    6.10
   2   8   5   27.80    5.70
  -3  -8  -5    4.90    5.10
  -3  -8  -5    5.00    7.40
   3   8   5    6.20    7.70
   3   8   5    4.50    5.70
   3   8   5    2.50    3.20
   3   8   5   -0.50    3.90
  -4  -8  -5   44.80    9.50
  -4  -8  -5   74.39    9.90
   4   8   5   54.29    8.30
   4   8   5   50.99    8.40
   4   8   5   60.39    5.60
   2  -9  -5   11.40    6.10
   2  -9  -5   10.90    4.00
  -2   9   5    9.50    5.20
  -2   9   5   15.50    3.40
  -2   9   5    6.00    4.20
  -2   9   5   18.00    6.10
   1  -9  -5   78.29    9.30
  -1   9   5   94.99   10.80
  -1   9   5   94.29   12.40
  -1   9   5  104.69    9.30
  -1   9   5  103.69    8.80
   0  -9  -5   10.70    3.80
   0  -9  -5    8.50    5.20
   0   9   5    2.30    4.80
   0   9   5    5.50    5.90
   0   9   5    2.70    6.10
   0   9   5    2.90    4.00
   0   9   5    3.50    3.30
  -1  -9  -5    4.20    3.20
   1   9   5   -2.30    4.40
   1   9   5   -0.30    4.10
   1   9   5   -0.30    2.40
   1   9   5    2.40    5.60
   1   9   5   -0.50    3.30
  -2  -9  -5  121.19   13.20
  -2  -9  -5  151.98   11.40
   2   9   5  148.89   12.10
   2   9   5  127.19   10.70
   2   9   5  141.99    9.80
   2   9   5  117.39   12.60
   2   9   5  139.79   10.00
  -3  -9  -5    0.60    3.40
  -3  -9  -5    6.40    8.00
   3   9   5    3.50    2.70
   3   9   5    3.10    6.70
   3   9   5    2.20    7.50
   3   9   5    4.70    3.00
   1 -10  -5   14.50    3.00
  -1  10   5   22.90    5.90
  -1  10   5   25.90    5.30
  -1  10   5   22.90    4.10
  -1  10   5   28.10    4.80
   0  10   5    1.90    2.50
   0  10   5   -1.10    3.50
   0  10   5    2.50    4.40
   0  10   5    1.60    3.30
   1  10   5    8.10    4.10
   1  10   5   13.20    3.40
   1  10   5    8.90    5.20
   1  10   5    8.30    4.10
   2  10   5   13.30    5.40
   2  10   5   16.40    2.90
   2  10   5   14.30    3.10
   2  10   5   15.80    3.50
   1   8  -6   54.99    5.70
   1   8  -6   48.50    6.20
  -1  -8   6   32.60    5.10
   0   8  -6   -1.10    2.40
   0   8  -6   -5.50    2.70
   0   8  -6   -0.50    3.00
   0  -8   6    3.50    3.60
   0  -8   6    0.90    2.50
   0  -8   6   -1.10    3.10
  -1   8  -6   10.80    6.10
  -1   8  -6    0.70    2.00
   1  -8   6    3.40    3.90
   1  -8   6    1.40    2.20
  -2   8  -6    4.70    5.20
  -2   8  -6    7.10    2.30
   2  -8   6   10.00    3.50
   3   7  -6   17.50    4.10
   3   7  -6   30.90    4.00
  -3  -7   6   22.00    4.10
   2   7  -6    0.20    3.10
   2   7  -6    0.40    3.00
   2   7  -6   -1.00    3.10
  -2  -7   6    2.20    4.40
  -2  -7   6    1.60    6.30
   1   7  -6   17.20    5.20
   1   7  -6   21.50    5.30
   1   7  -6   26.80    4.40
  -1  -7   6   17.10    6.10
  -1  -7   6   26.60    6.10
  -1  -7   6   23.10    4.90
   0   7  -6   -0.40    3.30
   0   7  -6    8.80    6.80
   0   7  -6    5.30    4.70
   0  -7   6    3.70    4.40
   0  -7   6    5.00    6.70
  -1   7  -6   -0.20    2.40
  -1   7  -6   10.10    5.50
  -1   7  -6    3.20    8.80
   1  -7   6   -9.40   12.90
   1  -7   6    2.50    4.80
  -2   7  -6   29.40    4.10
  -2   7  -6   22.90    3.50
  -2   7  -6   16.70    6.70
   2  -7   6   25.50    3.40
   2  -7   6   21.10    5.00
   2  -7   6   32.10    8.60
  -3   7  -6   -0.80    1.60
  -3   7  -6    1.50    3.50
   3  -7   6    1.50    0.80
   3  -7   6   -2.40    7.10
   3  -7   6   -0.60    3.00
   3   6  -6   22.40    3.70
   3   6  -6   12.30    7.80
   3   6  -6   12.30    5.00
  -3  -6   6   11.60    5.60
  -3  -6   6   13.60    2.50
  -3  -6   6    5.20    5.60
   2   6  -6    2.20    6.10
   2   6  -6   -1.20    5.10
   2   6  -6    3.60    3.00
  -2  -6   6   -2.60    8.50
  -2  -6   6   -0.10    5.70
  -2  -6   6    0.70    4.20
  -2  -6   6    3.20    2.10
   1   6  -6   18.00    4.90
   1   6  -6   24.30    4.70
   1   6  -6   15.70    5.30
  -1  -6   6   18.40    3.30
  -1  -6   6   20.10    6.30
  -1  -6   6   19.00   10.20
  -1  -6   6   20.00    7.70
   0   6  -6  118.19   19.00
   0   6  -6   82.89   10.70
   0  -6   6   93.19   11.40
   0  -6   6   94.99   15.00
   0  -6   6   98.19    7.40
  -1   6  -6   -6.40    6.40
  -1   6  -6   -3.80    4.10
  -1   6  -6   -4.20    4.00
  -1   6  -6    1.80    3.10
  -1   6  -6   -1.60    3.40
   1  -6   6    0.30    1.70
   1  -6   6   -5.30    8.40
   1  -6   6   -2.30    5.30
  -2   6  -6   90.29   14.10
  -2   6  -6  101.69    9.80
  -2   6  -6   98.49    7.90
   2  -6   6   80.99   14.90
   2  -6   6  104.99    7.40
   2  -6   6   71.69    9.80
  -3   6  -6   26.10    9.00
  -3   6  -6   39.30    4.60
  -3   6  -6   35.60    5.00
   3  -6   6   35.20    7.40
   3  -6   6   38.60    4.30
   3  -6   6   39.70   11.90
  -4   6  -6   23.40    3.00
   4  -6   6   18.60    3.10
   4  -6   6   20.20    5.30
   4   5  -6   30.50    4.60
   4   5  -6   24.80    3.60
   4   5  -6   18.20    4.90
  -4  -5   6   21.30    3.90
  -4  -5   6   15.30    4.70
   3   5  -6   68.39    4.60
   3   5  -6   70.19    7.60
   3   5  -6   68.59    7.10
   3   5  -6   56.09   10.20
  -3  -5   6   74.99    6.90
  -3  -5   6   56.59    9.70
  -3  -5   6   35.30   13.60
  -3  -5   6   44.40   14.30
   2   5  -6   19.10   11.40
   2   5  -6   21.70    6.40
   2   5  -6   12.10    2.90
  -2  -5   6   21.80    4.10
  -2  -5   6   16.40    9.60
  -2  -5   6   26.70    7.30
  -2  -5   6   11.80    6.70
   1   5  -6    8.70    5.20
   1   5  -6    4.00    5.30
   1   5  -6    6.20    2.30
   1   5  -6    8.50    4.00
   1   5  -6    6.60    6.20
   1   5  -6    2.10    4.70
  -1  -5   6    5.00    5.70
  -1  -5   6    7.00    9.90
  -1  -5   6    7.80    2.90
   0   5  -6  228.48   13.30
   0   5  -6  217.18   18.30
   0   5  -6  236.48   15.00
   0   5  -6  220.18   16.40
   0   5  -6  213.58   19.20
   0  -5   6  237.88   14.80
   0  -5   6  205.98   22.30
   0  -5   6  216.18   17.60
  -1   5  -6   87.09   12.80
  -1   5  -6   90.39    7.60
  -1   5  -6   76.89    9.10
  -1   5  -6   82.49   11.80
  -1   5  -6  103.99    9.60
  -1   5  -6   92.39    6.40
   1  -5   6   76.49   12.10
   1  -5   6   65.09   13.10
   1  -5   6   98.49    7.40
  -2   5  -6   46.80   11.80
  -2   5  -6   65.09   10.50
  -2   5  -6   71.89    4.90
  -2   5  -6   54.29    4.80
  -2   5  -6   46.40    7.90
  -2   5  -6   53.89    6.60
   2  -5   6   56.99    6.20
   2  -5   6   49.20   11.70
   2  -5   6   48.40    9.10
  -3   5  -6   50.19    9.10
  -3   5  -6   54.49    4.30
  -3   5  -6   56.49    7.20
  -3   5  -6   63.39    6.50
   3  -5   6   40.00   11.50
   3  -5   6   53.99    5.30
   3  -5   6   40.20    8.70
  -4   5  -6    0.60    3.90
  -4   5  -6    3.40    1.60
  -4   5  -6    6.30    4.90
  -4   5  -6    5.30    3.60
   4  -5   6    4.20    4.60
   4  -5   6   -2.90    8.20
   4  -5   6    5.30    2.00
   4   4  -6    0.70    2.10
   4   4  -6    3.50    6.60
   4   4  -6    0.80    6.90
   4   4  -6    3.90    2.90
  -4  -4   6    2.10    3.10
  -4  -4   6    4.20    3.50
  -4  -4   6   -4.40    4.20
  -4  -4   6    2.40    6.20
   3   4  -6  195.28   13.40
   3   4  -6  195.58   13.90
   3   4  -6  193.58   11.80
  -3  -4   6  185.08   17.80
  -3  -4   6  186.48   18.90
  -3  -4   6  173.68   24.00
  -3  -4   6  180.28   13.50
   2   4  -6   10.50    3.00
   2   4  -6    9.40    5.70
   2   4  -6   11.50    3.60
   2   4  -6   15.80    5.10
  -2  -4   6   10.70    7.90
  -2  -4   6   10.30   12.10
  -2  -4   6   12.90    3.60
  -2  -4   6    7.20    6.90
   1   4  -6  102.39    8.50
   1   4  -6   98.99   13.70
   1   4  -6  121.09    8.10
   1   4  -6  109.89   11.50
  -1  -4   6  117.39   10.60
  -1  -4   6  135.59   26.90
  -1  -4   6  116.59   12.70
  -1  -4   6  115.89   17.00
   0   4  -6   91.09   10.80
   0   4  -6  107.79    7.50
   0   4  -6  110.19   19.60
   0   4  -6  100.09    8.80
   0  -4   6  105.09    8.50
   0  -4   6  105.49   12.00
   0  -4   6  117.59   16.50
   0  -4   6  117.69   15.40
  -1   4  -6   38.70    5.80
  -1   4  -6   44.70    5.00
  -1   4  -6   45.90    8.70
  -1   4  -6   44.20    5.80
  -1   4  -6   53.59    9.80
   1  -4   6   36.50    4.80
   1  -4   6   50.09   13.00
   1  -4   6   44.70    8.20
   1  -4   6   49.30   11.20
  -2   4  -6   34.20    4.80
  -2   4  -6   25.00    5.50
  -2   4  -6   25.30    4.00
  -2   4  -6   26.90    3.30
  -2   4  -6   30.10    6.70
  -2   4  -6   34.60    8.70
   2  -4   6   20.30    3.90
   2  -4   6    3.50   11.00
   2  -4   6   20.40    7.80
   2  -4   6   27.60   11.00
   2  -4   6   28.00    7.70
  -3   4  -6   76.29    6.90
  -3   4  -6   81.89    7.20
  -3   4  -6   72.69    7.10
  -3   4  -6   78.99   11.00
  -3   4  -6   75.09   10.20
   3  -4   6   67.79   10.20
   3  -4   6   65.39   13.60
   3  -4   6   84.89    7.50
  -4   4  -6   17.30    3.80
  -4   4  -6   22.60    4.50
  -4   4  -6   17.10    2.60
   4  -4   6   28.90    8.20
   4  -4   6   18.30    4.30
   4  -4   6   13.60    9.80
  -5   4  -6    0.20    1.20
  -5   4  -6    0.70    1.40
   5  -4   6    0.20    1.60
  -5  -3   6   79.29    6.20
   4   3  -6   29.50    3.80
   4   3  -6   33.20    9.40
   4   3  -6   38.80    5.00
   4   3  -6   28.70    4.90
  -4  -3   6   22.70    6.50
  -4  -3   6   28.00    8.10
  -4  -3   6   30.40    5.70
  -4  -3   6   21.40   11.80
   3   3  -6   25.50    5.20
   3   3  -6   29.00    6.50
   3   3  -6   25.30    4.40
   3   3  -6   29.10    5.20
  -3  -3   6   22.30    9.20
  -3  -3   6   21.50    8.50
  -3  -3   6   26.10    5.80
  -3  -3   6   17.80   12.90
   2   3  -6  468.45   26.30
   2   3  -6  444.56   27.50
   2   3  -6  447.16   27.00
  -2  -3   6  476.85   31.00
  -2  -3   6  428.76   34.60
  -2  -3   6  466.15   40.80
  -2  -3   6  436.86   29.70
  -2  -3   6  489.45   28.60
   1   3  -6   77.59    7.50
   1   3  -6   79.59    9.50
   1   3  -6   82.29    6.90
   1   3  -6   75.69    9.40
  -1  -3   6   89.39    9.40
  -1  -3   6   79.69   13.70
  -1  -3   6   83.39    7.80
  -1  -3   6   94.99   14.90
   0   3  -6  751.32   44.70
   0   3  -6  681.63   41.30
   0   3  -6  772.72   40.90
   0   3  -6  766.12   42.00
   0   3  -6  783.52   45.80
   0  -3   6  762.32   42.10
   0  -3   6  727.43   47.20
   0  -3   6  735.13   43.60
   0  -3   6  773.02   50.89
  -1   3  -6   98.69    7.90
  -1   3  -6  113.39   11.60
  -1   3  -6   84.39    7.20
  -1   3  -6   82.29    7.70
  -1   3  -6  106.19   15.00
  -1   3  -6   85.69    6.80
   1  -3   6  113.39   16.40
   1  -3   6  106.59   14.10
   1  -3   6   87.39    7.70
   1  -3   6  129.19   14.50
   1  -3   6   96.69   11.30
  -2   3  -6    5.40    4.90
  -2   3  -6    5.00    2.90
  -2   3  -6    1.50    2.80
  -2   3  -6    8.60    6.70
  -2   3  -6   -1.60    5.00
  -2   3  -6    6.00    3.20
   2  -3   6    2.50    2.20
   2  -3   6    3.00    6.80
   2  -3   6   -0.30    3.50
   2  -3   6    4.30    9.10
   2  -3   6   -3.70    5.60
  -3   3  -6  102.79    8.10
  -3   3  -6  101.79    9.90
  -3   3  -6  102.69    9.00
  -3   3  -6  113.09   12.60
  -3   3  -6  105.09    8.60
   3  -3   6  117.69   14.30
   3  -3   6  100.09    8.80
   3  -3   6  114.19   18.40
  -4   3  -6   77.79    6.50
  -4   3  -6   89.99    7.60
  -4   3  -6   91.99    8.10
  -4   3  -6   57.19    8.90
  -4   3  -6   90.59    9.50
   4  -3   6  101.49   13.90
   4  -3   6   88.39    7.90
   4  -3   6   67.59   13.90
  -5   3  -6   39.70    4.20
   5  -3   6   40.10    4.80
   5   2  -6   54.69    7.30
   5   2  -6   55.79    4.10
  -5  -2   6   44.10    4.80
   4   2  -6   94.79    8.00
   4   2  -6   91.39    8.10
  -4  -2   6   98.39   11.70
  -4  -2   6   76.19   12.10
  -4  -2   6   64.79   12.80
  -4  -2   6   92.29    8.90
   3   2  -6  148.09   11.80
   3   2  -6  112.29   13.50
   3   2  -6  128.39   11.10
   3   2  -6  141.69   10.30
  -3  -2   6  140.99   16.60
  -3  -2   6  161.58   12.40
  -3  -2   6  134.49   15.90
   2   2  -6  270.37   17.10
   2   2  -6  271.87   20.00
   2   2  -6  284.77   17.20
   2   2  -6  268.47   17.90
  -2  -2   6  291.17   27.30
  -2  -2   6  285.07   21.30
  -2  -2   6  281.57   18.70
  -2  -2   6  282.97   24.70
  -2  -2   6  274.57   20.30
   1   2  -6  865.71   49.20
   1   2  -6  844.52   45.90
   1   2  -6  814.32   46.60
   1   2  -6  834.52   46.50
   1   2  -6  874.51   49.00
  -1  -2   6  840.42   52.29
  -1  -2   6  808.32   46.90
  -1  -2   6  851.81   48.10
   0   2  -6  129.79   12.90
   0   2  -6  112.89    8.00
   0   2  -6  115.09   14.30
   0   2  -6  110.99    9.10
   0  -2   6  122.49   15.50
   0  -2   6  132.69   15.20
   0  -2   6  116.09    8.90
   0  -2   6  111.79   10.00
  -1   2  -6  257.27   15.80
  -1   2  -6  248.68   16.80
  -1   2  -6  262.67   18.70
  -1   2  -6  267.57   17.00
  -1   2  -6  303.77   22.20
   1  -2   6  269.77   19.30
   1  -2   6  278.27   23.40
   1  -2   6  314.17   24.70
   1  -2   6  286.17   21.00
  -2   2  -6   13.90    2.90
  -2   2  -6   12.50    2.60
  -2   2  -6   10.40    5.10
  -2   2  -6    2.10    7.90
  -2   2  -6   13.60    2.80
  -2   2  -6   11.80    3.70
   2  -2   6   15.00    3.40
   2  -2   6   19.30    6.10
   2  -2   6   17.30    4.40
   2  -2   6    5.40    7.90
   2  -2   6   15.40    6.60
   2  -2   6   19.90    8.30
  -3   2  -6   32.80    4.70
  -3   2  -6   24.30    4.50
  -3   2  -6   26.80    4.00
  -3   2  -6   23.90    6.10
   3  -2   6   33.10    8.50
   3  -2   6   17.20   12.40
   3  -2   6   23.00    4.40
   3  -2   6   31.40    8.00
   3  -2   6   16.40   11.10
   3  -2   6   22.60    3.30
  -4   2  -6  111.09   10.20
  -4   2  -6  137.89   10.00
  -4   2  -6  130.89    9.70
  -4   2  -6  151.68   10.30
   4  -2   6  139.99   10.60
   4  -2   6  168.28   15.40
   4  -2   6  166.58   20.10
  -5   2  -6  100.39    7.80
  -5   2  -6  104.19    8.50
   5  -2   6  103.09    7.20
   5  -2   6  106.69    8.30
   5   1  -6    3.00    3.90
   5   1  -6    0.70    1.80
  -5  -1   6   -0.10    2.00
  -5  -1   6    1.00    4.00
  -5  -1   6    1.60    2.40
   4   1  -6   91.89    7.00
   4   1  -6   98.99    8.10
  -4  -1   6   96.59    9.80
  -4  -1   6  101.49    8.50
  -4  -1   6   68.79   11.30
  -4  -1   6   98.99   12.90
   3   1  -6  310.77   19.80
   3   1  -6  322.27   19.70
   3   1  -6  321.77   20.30
   3   1  -6  339.37   23.90
   3   1  -6  320.07   19.80
  -3  -1   6  306.57   21.30
  -3  -1   6  339.27   29.40
  -3  -1   6  273.97   20.20
  -3  -1   6  309.77   26.20
  -3  -1   6  326.97   23.50
  -3  -1   6  338.97   23.50
   2   1  -6  253.27   15.90
   2   1  -6  229.58   18.40
   2   1  -6  232.58   15.50
   2   1  -6  263.07   15.90
  -2  -1   6  268.97   17.10
  -2  -1   6  195.18   22.40
  -2  -1   6  196.28   18.20
  -2  -1   6  273.17   22.60
  -2  -1   6  249.97   19.60
  -2  -1   6  227.58   19.30
  -2  -1   6  223.08   15.60
   1   1  -6  662.13   38.00
   1   1  -6  608.54   42.50
   1   1  -6  619.44   35.80
   1   1  -6  614.14   37.20
  -1  -1   6  660.73   41.40
  -1  -1   6  645.44   37.30
  -1  -1   6  623.04   43.10
  -1  -1   6  606.94   37.50
   0   1  -6  324.27   28.20
   0   1  -6  344.07   19.70
   0   1  -6  332.47   22.70
   0   1  -6  335.57   21.10
   0   1  -6  315.17   18.80
   0  -1   6  321.77   21.10
   0  -1   6  340.97   26.30
   0  -1   6  325.77   24.60
  -1   1  -6   63.39    8.90
  -1   1  -6   41.70    5.30
  -1   1  -6   46.80   11.60
  -1   1  -6   46.50    6.10
  -1   1  -6   41.40    4.10
   1  -1   6   39.80    4.50
   1  -1   6   61.59    7.90
   1  -1   6   55.09   10.40
   1  -1   6   36.30    8.90
  -2   1  -6  227.18   15.60
  -2   1  -6  226.28   14.50
  -2   1  -6  228.38   15.20
  -2   1  -6  241.18   15.40
  -2   1  -6  264.37   18.60
  -2   1  -6  236.08   17.00
   2  -1   6  204.38   24.40
   2  -1   6  260.17   22.70
   2  -1   6  239.78   16.80
   2  -1   6  233.78   18.40
   2  -1   6  274.37   23.60
   2  -1   6  227.28   14.30
   2  -1   6  238.18   15.70
  -3   1  -6   16.20    3.80
  -3   1  -6   17.10    4.80
  -3   1  -6   17.20    5.70
  -3   1  -6   13.90    3.50
  -3   1  -6   21.70    5.80
  -3   1  -6   13.30    4.20
   3  -1   6   14.00    6.60
   3  -1   6    8.70    5.80
   3  -1   6   16.50    7.50
   3  -1   6   21.40   10.10
   3  -1   6   12.30    3.80
   3  -1   6   11.30    7.80
   3  -1   6   13.40    2.80
  -4   1  -6  159.78   11.40
  -4   1  -6  152.58   11.30
  -4   1  -6  141.09   11.70
   4  -1   6  137.09    9.40
   4  -1   6  138.79   11.10
   4  -1   6  153.08   16.40
   4  -1   6  170.58   14.60
  -5   1  -6  205.98   13.00
  -5   1  -6  194.58   12.70
  -5   1  -6  202.58   13.00
   5  -1   6  197.28   12.40
   5  -1   6  192.58   13.20
   5   0  -6   17.00    3.50
   5   0  -6    4.90    5.70
  -5   0   6   13.30    3.50
  -5   0   6   17.40    5.20
  -5   0   6    8.80    3.80
   4   0  -6   17.80    4.50
   4   0  -6   15.90    5.80
   4   0  -6   15.30    3.80
  -4   0   6   15.40    5.00
  -4   0   6   19.00    5.20
  -4   0   6   18.90    8.50
   3   0  -6  301.77   18.70
   3   0  -6  280.67   19.30
   3   0  -6  300.07   20.10
   3   0  -6  337.57   23.50
  -3   0   6  362.16   28.90
  -3   0   6  315.97   26.50
  -3   0   6  263.27   19.50
  -3   0   6  321.37   24.10
  -3   0   6  327.27   21.80
  -3   0   6  297.77   20.20
   2   0  -6  195.18   13.90
   2   0  -6  164.78   17.60
   2   0  -6  196.38   13.40
   2   0  -6  195.98   15.40
  -2   0   6  183.28   13.60
  -2   0   6  217.08   17.40
  -2   0   6  188.98   12.70
  -2   0   6  213.28   20.30
  -2   0   6  191.88   17.50
  -2   0   6  191.98   13.20
  -2   0   6  213.28   15.10
   1   0  -6   94.29   10.60
   1   0  -6   90.89   12.60
   1   0  -6   93.29    7.20
   1   0  -6  101.19    7.80
   1   0  -6   88.09    9.10
   1   0  -6   80.59    7.10
   1   0  -6   88.59    7.80
  -1   0   6   99.49   10.20
  -1   0   6  108.79   14.50
  -1   0   6   85.89   10.90
  -1   0   6   85.99   10.50
   0   0  -6   -3.70    4.70
   0   0  -6    5.30    4.00
   0   0  -6   -0.50    2.20
   0   0  -6    2.60    2.40
   0   0   6    3.60    3.90
   0   0   6    5.00    6.60
   0   0   6    0.20    4.20
  -1   0  -6  222.78   16.90
  -1   0  -6  219.48   14.20
  -1   0  -6  221.78   22.50
  -1   0  -6  205.78   14.40
  -1   0  -6  228.78   14.90
   1   0   6  227.18   15.70
   1   0   6  233.88   19.30
   1   0   6  231.28   19.90
  -2   0  -6   21.80    3.70
  -2   0  -6   19.20    5.40
  -2   0  -6   20.80    8.60
  -2   0  -6   10.40    5.30
  -2   0  -6   18.40    4.10
  -2   0  -6   18.30    4.10
   2   0   6   17.50    2.70
   2   0   6   27.20    8.50
   2   0   6   17.20    7.60
   2   0   6   26.80    5.30
   2   0   6   20.30    7.40
  -3   0  -6    1.10    2.10
  -3   0  -6    4.10    2.90
  -3   0  -6    2.40    3.40
  -3   0  -6    4.70    4.80
   3   0   6    4.30    2.60
   3   0   6   -0.70    4.90
   3   0   6    7.30    7.70
   3   0   6    0.50    2.10
   3   0   6    6.10    5.40
   3   0   6   -1.90    7.20
  -4   0  -6  145.79   11.70
  -4   0  -6  140.99   12.10
  -4   0  -6  142.49   11.10
   4   0   6  144.69    9.80
   4   0   6  126.29   15.40
   4   0   6  146.69   11.10
  -5   0  -6  281.17   17.10
  -5   0  -6  267.77   17.30
  -5   0  -6  265.87   17.50
   5   0   6  266.87   17.20
   5   0   6  282.77   16.00
  -6   0  -6    0.90    1.60
  -6   0  -6    2.80    1.10
   6   0   6    3.60    1.70
   6   0   6    1.50    1.00
   5  -1  -6   15.10    2.40
   5  -1  -6   21.00    3.10
   5  -1  -6   14.90    4.20
  -5   1   6   13.30    3.40
  -5   1   6   15.60    5.10
  -5   1   6    9.90    2.80
   4  -1  -6    9.30    4.10
   4  -1  -6    7.70    4.00
   4  -1  -6    5.00    3.90
  -4   1   6    4.60    3.00
  -4   1   6    5.30    4.60
  -4   1   6    4.70    4.90
   3  -1  -6  392.36   27.70
   3  -1  -6  439.06   25.90
   3  -1  -6  383.66   24.40
  -3   1   6  387.06   24.80
  -3   1   6  437.26   33.30
  -3   1   6  394.36   28.10
  -3   1   6  357.66   24.80
   2  -1  -6   17.50    5.30
   2  -1  -6   20.70    3.70
   2  -1  -6   28.00    5.00
   2  -1  -6   27.80    9.00
   2  -1  -6   15.20    7.70
   2  -1  -6   11.40    4.10
  -2   1   6   19.70    3.90
  -2   1   6   12.00    3.90
  -2   1   6   22.70    9.00
  -2   1   6   14.50    3.00
  -2   1   6   20.60    6.90
  -2   1   6   17.90    5.50
  -2   1   6   17.10    6.40
  -2   1   6   18.20    3.40
   1  -1  -6 1911.91  113.69
   1  -1  -6 2042.90  104.59
   1  -1  -6 1803.02  105.09
   1  -1  -6 1953.30  108.19
   1  -1  -6 1996.30  105.69
   1  -1  -6 1956.50  106.59
  -1   1   6 1926.51  109.59
  -1   1   6 1983.80  106.59
  -1   1   6 1954.90  108.89
  -1   1   6 1990.10  111.09
  -1   1   6 1913.01  109.09
  -1   1   6 2034.50  105.59
   0  -1  -6   78.89    6.60
   0  -1  -6   92.99   14.50
   0  -1  -6   95.19    7.80
   0  -1  -6   88.59   10.30
   0  -1  -6   92.29    8.40
   0   1   6  115.99   13.00
   0   1   6   84.09    8.30
   0   1   6   81.69   10.20
   0   1   6   76.79    8.70
   0   1   6   91.29    7.80
  -1  -1  -6    1.00    6.10
  -1  -1  -6    7.20    5.70
  -1  -1  -6    6.80    2.10
  -1  -1  -6    5.70    3.60
  -1  -1  -6    2.70    3.20
   1   1   6    9.10    6.60
   1   1   6    6.30    3.60
   1   1   6    3.20    5.50
  -2  -1  -6  286.87   19.60
  -2  -1  -6  275.37   22.60
  -2  -1  -6  302.47   18.70
  -2  -1  -6  309.97   24.60
  -2  -1  -6  300.27   19.40
  -2  -1  -6  279.97   29.40
   2   1   6  273.67   18.20
   2   1   6  305.67   21.60
   2   1   6  302.97   24.80
   2   1   6  295.67   18.50
   2   1   6  291.27   17.00
   2   1   6  265.07   22.50
   2   1   6  308.27   18.90
   2   1   6  277.57   17.60
   2   1   6  295.77   23.80
  -3  -1  -6  238.88   21.30
  -3  -1  -6  227.78   17.50
  -3  -1  -6  231.88   23.20
  -3  -1  -6  215.98   14.50
  -3  -1  -6  234.18   16.10
  -3  -1  -6  225.48   16.10
   3   1   6  223.38   15.10
   3   1   6  222.98   14.80
   3   1   6  223.78   21.70
   3   1   6  225.38   13.60
  -4  -1  -6    9.50    6.40
  -4  -1  -6    3.00    3.50
  -4  -1  -6    1.00    4.50
  -4  -1  -6   -0.50    5.50
  -4  -1  -6    2.20    5.60
   4   1   6   -1.40    1.80
   4   1   6    0.50    2.30
   4   1   6    3.40    5.40
  -5  -1  -6   83.09    8.70
  -5  -1  -6   91.99    9.10
  -5  -1  -6   92.79    7.10
   5   1   6   86.79    6.40
   5   1   6   72.59    6.80
  -6  -1  -6   34.70    5.00
  -6  -1  -6   23.40    3.00
   6   1   6   30.80    3.20
   5  -2  -6   28.30    3.80
   5  -2  -6   24.80    3.30
   5  -2  -6   25.80    3.30
  -5   2   6   25.70    4.70
  -5   2   6   16.80    4.20
   4  -2  -6    5.80    3.90
   4  -2  -6    4.60    4.60
  -4   2   6    0.90    3.20
  -4   2   6    7.60    3.60
  -4   2   6    4.40    4.30
  -4   2   6    7.90    4.50
   3  -2  -6  519.25   34.80
   3  -2  -6  523.05   37.30
   3  -2  -6  553.84   32.60
   3  -2  -6  524.65   32.20
   3  -2  -6  498.05   30.40
   3  -2  -6  416.86   38.10
  -3   2   6  525.95   31.00
  -3   2   6  512.45   34.00
  -3   2   6  584.14   40.40
  -3   2   6  523.25   30.70
   2  -2  -6  455.25   31.70
   2  -2  -6  419.26   26.30
   2  -2  -6  492.85   28.60
   2  -2  -6  457.05   27.80
   2  -2  -6  423.86   36.20
  -2   2   6  443.76   26.50
  -2   2   6  472.55   33.70
  -2   2   6  455.65   27.10
  -2   2   6  452.95   26.40
  -2   2   6  444.06   28.60
  -2   2   6  440.16   26.60
   1  -2  -6 1487.65   83.09
   1  -2  -6 1583.34   93.09
   1  -2  -6 1641.74   86.29
   1  -2  -6 1593.04   84.79
   1  -2  -6 1546.65   83.09
  -1   2   6 1436.56   85.69
  -1   2   6 1539.25   83.79
  -1   2   6 1559.24   83.99
  -1   2   6 1360.26   82.49
  -1   2   6 1667.23   86.69
  -1   2   6 1467.35   81.79
  -1   2   6 1500.95   87.99
   0  -2  -6  911.31   51.59
   0  -2  -6  943.61   54.09
   0  -2  -6  942.21   50.39
   0  -2  -6  921.91   60.59
   0  -2  -6  863.51   51.09
   0   2   6  932.21   51.49
   0   2   6  928.91   55.49
   0   2   6  979.60   55.99
  -1  -2  -6  218.38   15.00
  -1  -2  -6  219.58   17.60
  -1  -2  -6  188.08   21.20
  -1  -2  -6  195.78   13.40
   1   2   6  194.98   17.90
   1   2   6  181.08   16.50
   1   2   6  189.68   17.20
   1   2   6  202.08   12.60
  -2  -2  -6  157.38   18.40
  -2  -2  -6  139.79   19.20
  -2  -2  -6  148.29   11.10
  -2  -2  -6  153.68   14.30
  -2  -2  -6  134.89   15.50
  -2  -2  -6  137.79   11.10
   2   2   6  147.09    9.90
   2   2   6  135.09   14.00
  -3  -2  -6   26.70    3.70
  -3  -2  -6   33.30    7.90
  -3  -2  -6   47.10   15.40
  -3  -2  -6   20.30    5.50
  -3  -2  -6   35.00   10.70
  -3  -2  -6   18.90    8.30
  -3  -2  -6   25.30    6.10
   3   2   6   30.70    7.90
   3   2   6   20.50    4.00
   3   2   6   29.80    5.10
   3   2   6   27.20    3.60
  -4  -2  -6   73.89    8.50
  -4  -2  -6   58.09    9.90
  -4  -2  -6   70.09    6.60
  -4  -2  -6   75.29    9.20
  -4  -2  -6   66.49   13.30
   4   2   6   66.99    6.70
   4   2   6   69.09    7.60
   4   2   6   80.19    6.00
   4   2   6   79.69   12.60
  -5  -2  -6   29.10    5.50
  -5  -2  -6   20.70    4.60
  -5  -2  -6   17.60    5.10
  -5  -2  -6   18.90    3.90
   5   2   6   21.40    3.30
   5   2   6   13.70    2.70
  -6  -2  -6   13.50    2.70
  -6  -2  -6    3.90    1.50
   6   2   6    8.60    2.30
   5  -3  -6   47.20    5.10
   5  -3  -6   42.60    4.40
  -5   3   6   38.40    4.50
  -5   3   6   36.00    5.40
   4  -3  -6   75.49    8.70
   4  -3  -6   61.69    6.50
   4  -3  -6   65.39    8.90
  -4   3   6   54.39    8.00
  -4   3   6   72.09    7.30
  -4   3   6   63.59    8.70
   3  -3  -6  113.99   11.80
   3  -3  -6  149.49   19.80
   3  -3  -6  124.99   10.40
   3  -3  -6  130.79   13.60
  -3   3   6  125.39   12.40
  -3   3   6  134.99   10.80
  -3   3   6  133.09   16.60
  -3   3   6  115.69    9.10
  -3   3   6  128.99   11.10
   2  -3  -6  527.75   35.10
   2  -3  -6  484.25   29.20
   2  -3  -6  537.55   30.70
   2  -3  -6  502.95   41.50
   2  -3  -6  526.25   31.30
  -2   3   6  473.85   32.40
  -2   3   6  508.55   37.00
  -2   3   6  471.15   29.10
  -2   3   6  463.55   28.90
  -2   3   6  511.55   28.80
  -2   3   6  492.35   28.60
   1  -3  -6   64.99   10.70
   1  -3  -6   71.79    8.90
   1  -3  -6   53.39   12.90
  -1   3   6   87.19    6.50
  -1   3   6   85.39    6.90
  -1   3   6   94.69   11.30
  -1   3   6   78.89    8.10
  -1   3   6   82.79    7.00
  -1   3   6   73.49   11.70
  -1   3   6   90.39    6.80
   0  -3  -6 1146.49   60.09
   0  -3  -6 1000.30   68.89
   0  -3  -6 1070.09   59.49
   0  -3  -6 1122.39   62.19
   0   3   6 1170.78   62.89
   0   3   6 1072.19   61.29
   0   3   6 1103.09   65.29
   0   3   6  994.30   57.79
   0   3   6 1038.90   62.39
  -1  -3  -6   49.60    5.90
  -1  -3  -6   43.00    7.10
  -1  -3  -6   42.30    9.60
  -1  -3  -6   35.60    9.20
   1   3   6   45.30    5.90
   1   3   6   47.00    9.80
   1   3   6   43.00    8.30
   1   3   6   38.70    3.70
  -2  -3  -6    0.70    2.80
  -2  -3  -6    0.20    6.00
  -2  -3  -6    7.50    7.40
  -2  -3  -6    0.60    7.20
  -2  -3  -6   -0.60    4.20
  -2  -3  -6   -1.90    5.20
   2   3   6   -3.90    3.30
   2   3   6    4.50    5.20
   2   3   6   -0.10    1.80
   2   3   6    1.90    3.20
  -3  -3  -6    9.40   10.10
  -3  -3  -6    1.70    6.20
  -3  -3  -6    2.40    4.90
  -3  -3  -6    0.00    3.80
  -3  -3  -6   -5.40    9.30
  -3  -3  -6   -2.10    4.20
   3   3   6    6.00    2.00
   3   3   6    0.10    1.70
   3   3   6   -2.80    5.30
   3   3   6    3.90    5.10
   3   3   6    2.10    3.40
   3   3   6    1.20    2.10
  -4  -3  -6  143.89   19.50
  -4  -3  -6  142.69   13.70
  -4  -3  -6  127.29   12.30
  -4  -3  -6  163.88   16.10
   4   3   6  118.39    8.50
   4   3   6  128.89    9.00
   4   3   6  135.59   12.80
   4   3   6  140.69   15.00
  -5  -3  -6    1.10    4.50
  -5  -3  -6    7.30    7.20
  -5  -3  -6   -0.20    6.10
  -5  -3  -6   -2.90    3.40
   5   3   6    3.50    1.70
   5   3   6    2.00    2.40
  -6  -3  -6   11.00    3.10
   5  -4  -6    6.20    2.10
  -5   4   6    8.30    2.10
   4  -4  -6   91.09   13.60
   4  -4  -6   80.59   10.60
   4  -4  -6   84.99    8.40
  -4   4   6   73.29    9.90
  -4   4   6   80.59    8.00
  -4   4   6   79.09    8.40
   3  -4  -6   60.79    8.60
   3  -4  -6   43.40   13.60
   3  -4  -6   38.80    7.50
  -3   4   6   45.70    6.20
  -3   4   6   43.80    7.20
  -3   4   6   41.60    8.50
  -3   4   6   54.89    6.70
  -3   4   6   31.50    6.40
  -3   4   6   54.79   10.70
   2  -4  -6    7.50    4.50
   2  -4  -6    3.30    9.10
   2  -4  -6    4.70    5.60
  -2   4   6    3.10    4.00
  -2   4   6    5.70    4.00
  -2   4   6    9.60    5.90
  -2   4   6   10.80    5.40
  -2   4   6    4.80    4.80
  -2   4   6    6.50    3.60
   1  -4  -6  761.12   48.80
   1  -4  -6  754.22   43.60
   1  -4  -6  730.23   55.39
   1  -4  -6  760.22   43.80
  -1   4   6  714.63   42.20
  -1   4   6  818.12   44.50
  -1   4   6  785.12   43.20
  -1   4   6  785.72   50.79
  -1   4   6  742.63   41.70
  -1   4   6  767.22   42.00
  -1   4   6  740.13   42.40
  -1   4   6  791.62   47.20
   0  -4  -6  157.38   11.60
   0  -4  -6  147.49    9.40
   0  -4  -6  154.28   14.40
   0  -4  -6  126.49   10.30
   0  -4  -6  154.28   18.90
   0   4   6  174.48   14.70
   0   4   6  139.49    9.80
   0   4   6  149.49   11.90
   0   4   6  132.59    9.10
   0   4   6  135.79   17.20
   0   4   6  138.89   10.80
   0   4   6  166.38   11.30
  -1  -4  -6 1012.00   68.59
  -1  -4  -6 1034.30   58.99
  -1  -4  -6 1049.00   57.39
  -1  -4  -6 1046.60   58.09
  -1  -4  -6 1041.00   61.89
   1   4   6 1064.19   61.09
   1   4   6 1054.19   56.69
   1   4   6  987.90   55.79
   1   4   6 1087.19   60.19
   1   4   6 1030.70   57.29
   1   4   6 1098.09   57.89
  -2  -4  -6   70.39    7.60
  -2  -4  -6   75.59   11.00
  -2  -4  -6   82.49   15.70
  -2  -4  -6   90.69   14.30
  -2  -4  -6   77.99   15.00
  -2  -4  -6   78.09    9.40
   2   4   6   73.39    8.00
   2   4   6   77.29    5.90
   2   4   6   70.89   10.80
   2   4   6   76.99    9.10
   2   4   6   73.39    6.20
   2   4   6   81.09    7.30
  -3  -4  -6  196.28   25.00
  -3  -4  -6  183.58   13.60
  -3  -4  -6  137.59   23.30
  -3  -4  -6  171.08   21.70
  -3  -4  -6  152.88   16.00
  -3  -4  -6  161.28   14.30
   3   4   6  200.78   17.40
   3   4   6  179.58   17.70
   3   4   6  153.98   10.60
   3   4   6  165.28   11.40
   3   4   6  173.58   14.50
  -4  -4  -6  188.08   22.60
  -4  -4  -6  159.78   13.30
  -4  -4  -6  150.28   12.70
  -4  -4  -6  152.58   14.80
   4   4   6  157.58   17.10
   4   4   6  166.38   13.80
   4   4   6  142.69    9.70
   4   4   6  145.59   10.00
   4   4   6  145.39   13.50
  -5  -4  -6  111.79    9.40
  -5  -4  -6  125.19   12.60
  -5  -4  -6  103.39    9.70
  -5  -4  -6  113.39   14.60
   5   4   6  101.19    9.30
   5   4   6  103.29    7.10
   5   4   6   89.49    7.10
   4  -5  -6   21.10    7.70
   4  -5  -6   11.00    3.70
   4  -5  -6   20.00    6.30
  -4   5   6   13.50    3.00
  -4   5   6   14.10    3.50
  -4   5   6   16.10    3.30
  -4   5   6    9.90    4.50
   3  -5  -6  182.98   14.40
   3  -5  -6  179.08   15.30
   3  -5  -6  196.28   23.40
  -3   5   6  161.48   12.70
  -3   5   6  172.18   14.20
  -3   5   6  180.48   14.70
  -3   5   6  207.28   20.40
  -3   5   6  197.48   15.10
   2  -5  -6   37.40    7.00
   2  -5  -6   31.90   11.70
   2  -5  -6   40.20    7.40
   2  -5  -6   33.60   11.10
  -2   5   6   41.40   11.10
  -2   5   6   41.00    5.30
  -2   5   6   35.30    6.10
  -2   5   6   42.40   11.10
  -2   5   6   49.00    8.40
  -2   5   6   41.70    6.80
  -2   5   6   35.40    5.90
   1  -5  -6  245.38   20.90
   1  -5  -6  243.58   16.70
   1  -5  -6  211.48   15.60
   1  -5  -6  203.98   25.70
  -1   5   6  210.68   14.40
  -1   5   6  230.68   23.00
  -1   5   6  187.88   14.40
  -1   5   6  211.58   13.50
  -1   5   6  232.28   16.00
  -1   5   6  224.98   13.90
  -1   5   6  235.88   21.80
   0  -5  -6  396.76   36.90
   0  -5  -6  455.95   26.20
   0  -5  -6  413.56   29.30
   0  -5  -6  412.16   26.40
   0   5   6  468.05   27.00
   0   5   6  457.15   34.80
   0   5   6  452.35   25.60
   0   5   6  445.16   29.10
   0   5   6  417.96   25.50
   0   5   6  435.36   25.50
   0   5   6  437.86   24.30
  -1  -5  -6  580.24   35.50
  -1  -5  -6  573.04   33.30
  -1  -5  -6  595.84   34.10
  -1  -5  -6  584.64   46.80
  -1  -5  -6  598.64   38.70
   1   5   6  606.14   33.90
   1   5   6  589.14   44.20
   1   5   6  553.84   31.80
   1   5   6  569.94   33.90
   1   5   6  592.74   33.00
   1   5   6  602.64   36.60
   1   5   6  601.14   37.00
  -2  -5  -6  675.53   41.00
  -2  -5  -6  640.04   51.69
  -2  -5  -6  661.53   44.40
  -2  -5  -6  700.83   54.29
  -2  -5  -6  680.33   39.40
  -2  -5  -6  671.23   39.00
   2   5   6  646.84   36.50
   2   5   6  743.53   53.99
   2   5   6  667.43   39.00
   2   5   6  689.03   41.30
   2   5   6  705.93   39.00
   2   5   6  632.34   37.40
  -3  -5  -6   58.19   14.40
  -3  -5  -6   55.29   15.90
  -3  -5  -6   44.90    7.30
  -3  -5  -6   27.80    8.40
  -3  -5  -6   41.80   13.60
  -3  -5  -6   45.00    8.10
   3   5   6   37.50    8.70
   3   5   6   38.60    3.80
   3   5   6   38.30    8.50
   3   5   6   36.20    4.70
   3   5   6   39.60    6.50
   3   5   6   44.30    6.30
  -4  -5  -6   22.30    8.00
  -4  -5  -6   20.50    5.40
  -4  -5  -6   25.60   13.30
  -4  -5  -6   28.60    6.30
   4   5   6   38.70    7.30
   4   5   6   17.70    3.10
   4   5   6   26.30    5.40
   4   5   6   19.50    3.40
   4   5   6   23.00    5.60
   4   5   6   24.80    5.10
  -5  -5  -6  113.09   10.70
  -5  -5  -6  115.19    9.60
  -5  -5  -6  106.29   12.40
  -5  -5  -6  121.99    9.60
   5   5   6   93.59    7.30
   5   5   6  117.89    8.80
   5   5   6   95.99    6.90
   5   5   6  114.59    8.50
   4  -6  -6   10.40    8.50
   4  -6  -6   11.20   14.10
   4  -6  -6   12.60    3.00
  -4   6   6    7.80    2.20
  -4   6   6    3.60    2.60
  -4   6   6    9.60    3.80
   3  -6  -6  103.59   11.20
   3  -6  -6  114.59   18.60
   3  -6  -6   95.99    9.50
  -3   6   6  102.59    8.80
  -3   6   6  102.79   10.50
  -3   6   6  102.49    7.70
  -3   6   6   96.59   10.40
  -3   6   6   90.49    9.20
   2  -6  -6   73.19   16.00
   2  -6  -6   80.79   11.70
   2  -6  -6   70.09    8.20
  -2   6   6   89.29    9.70
  -2   6   6   72.19    9.30
  -2   6   6   74.29    6.90
  -2   6   6   66.79    8.60
  -2   6   6   83.89   13.50
  -2   6   6   74.99    9.20
  -2   6   6   71.59   12.40
   1  -6  -6   13.30    4.00
   1  -6  -6    7.10    6.80
   1  -6  -6   19.60   10.40
   1  -6  -6   15.80    5.00
  -1   6   6   15.80    4.10
  -1   6   6   15.10    3.80
  -1   6   6   21.30   10.80
  -1   6   6   13.20    3.20
  -1   6   6   15.50    6.80
  -1   6   6   19.60    8.40
  -1   6   6   14.70    6.10
   0  -6  -6  265.57   18.40
   0  -6  -6  336.37   23.60
   0  -6  -6  306.57   19.70
   0  -6  -6  292.97   30.10
   0   6   6  277.97   16.50
   0   6   6  309.77   20.30
   0   6   6  286.07   17.90
   0   6   6  264.67   17.60
   0   6   6  275.97   18.30
   0   6   6  276.87   27.20
   0   6   6  317.47   22.30
   0   6   6  266.07   16.20
  -1  -6  -6   47.10   13.20
  -1  -6  -6   58.29    6.10
  -1  -6  -6   49.60   11.40
  -1  -6  -6   50.69    8.20
   1   6   6   53.49    5.70
   1   6   6   57.79    7.40
   1   6   6   58.99    8.20
   1   6   6   60.69    6.30
   1   6   6   62.09   15.70
   1   6   6   59.59    9.40
   1   6   6   56.79    4.30
   1   6   6   57.59    7.10
  -2  -6  -6   87.69   25.00
  -2  -6  -6   89.79   14.50
  -2  -6  -6   86.49   13.30
  -2  -6  -6   77.19    7.90
  -2  -6  -6   82.19   17.10
  -2  -6  -6   90.59    9.20
   2   6   6  100.29   13.50
   2   6   6   84.49   19.40
   2   6   6   88.99    9.30
   2   6   6   83.99   11.60
   2   6   6   78.89    5.50
   2   6   6   80.99    7.60
   2   6   6   81.49    8.40
   2   6   6   91.69   12.30
  -3  -6  -6   52.89    7.00
  -3  -6  -6   33.00    8.90
  -3  -6  -6   50.79    8.30
   3   6   6   51.69    4.10
   3   6   6   51.49    6.50
   3   6   6   48.80    6.80
   3   6   6   51.79    5.80
   3   6   6   44.50    6.70
   3   6   6   39.30    9.30
   3   6   6   35.90    7.90
  -4  -6  -6   57.09    7.20
  -4  -6  -6   50.59    6.80
  -4  -6  -6   35.50   11.10
  -4  -6  -6   54.19   13.50
   4   6   6   51.89    4.90
   4   6   6   53.89    3.80
   4   6   6   40.90    6.40
   4   6   6   46.20    7.60
   4   6   6   47.40    7.70
  -5  -6  -6   62.69    7.10
  -5  -6  -6   65.49    9.20
  -5  -6  -6   66.09    7.80
  -5  -6  -6   64.09    6.20
   5   6   6   54.89    6.10
   5   6   6   65.89    6.30
   5   6   6   56.69    4.70
   3  -7  -6   21.50    8.70
   3  -7  -6   16.30    4.00
   3  -7  -6   27.80    7.10
  -3   7   6   21.40    3.80
  -3   7   6   15.90    4.70
  -3   7   6   20.00    6.10
  -3   7   6   18.10    4.20
   2  -7  -6   94.49   16.20
   2  -7  -6   86.79    8.20
   2  -7  -6   99.99   11.80
  -2   7   6   94.29    6.10
  -2   7   6   96.89   11.70
  -2   7   6   85.39   12.10
  -2   7   6  100.09    9.00
  -2   7   6   84.19    9.50
  -2   7   6   95.79   11.40
   1  -7  -6   56.79    8.40
   1  -7  -6   63.19    6.50
  -1   7   6   56.39    8.60
  -1   7   6   42.40    9.50
  -1   7   6   59.09    6.70
  -1   7   6   46.80    3.70
  -1   7   6   67.39    9.70
  -1   7   6   62.29    7.10
  -1   7   6   72.09   12.70
   0  -7  -6  106.79   14.20
   0  -7  -6   90.89   10.10
   0   7   6  104.79   10.80
   0   7   6   75.19    8.20
   0   7   6   83.59    7.60
   0   7   6   85.29   16.70
   0   7   6   94.89   10.00
   0   7   6  105.19   15.60
   0   7   6   72.19    7.70
  -1  -7  -6  149.29   13.70
  -1  -7  -6  133.29   16.30
   1   7   6  140.59   12.90
   1   7   6  173.88   11.70
   1   7   6  208.58   26.30
   1   7   6  133.29   15.20
   1   7   6  160.08   12.10
   1   7   6  169.48   11.10
   1   7   6  156.58   13.60
  -2  -7  -6   96.79   11.70
  -2  -7  -6   85.19   18.60
   2   7   6   86.09   13.80
   2   7   6  102.39   10.10
   2   7   6   94.79    8.30
   2   7   6  106.89   10.70
   2   7   6  103.19   10.30
   2   7   6   87.09    8.20
  -3  -7  -6    6.40    6.10
  -3  -7  -6    3.10    2.30
  -3  -7  -6    4.00    6.50
  -3  -7  -6    5.30    3.30
   3   7   6    8.40    2.60
   3   7   6    5.90    7.10
   3   7   6    4.00    4.70
   3   7   6   10.90    3.70
   3   7   6    4.20    3.20
  -4  -7  -6   35.10    7.90
  -4  -7  -6   37.10    4.20
  -4  -7  -6   24.70    5.00
  -4  -7  -6   22.30    7.00
   4   7   6   36.90    3.90
   4   7   6   25.80    5.10
   4   7   6   23.10    4.30
   3  -8  -6   17.40    6.50
   3  -8  -6   16.90    2.50
   3  -8  -6   21.30    9.70
  -3   8   6    7.90    3.50
  -3   8   6    9.00    4.10
  -3   8   6   10.10    4.70
  -3   8   6   12.80    2.80
   2  -8  -6   84.49    7.90
   2  -8  -6  156.58   28.40
   2  -8  -6  112.39   11.90
  -2   8   6  101.09   11.10
  -2   8   6  116.49    9.20
  -2   8   6  117.89    8.90
  -2   8   6   91.89   11.00
   1  -8  -6   45.40    7.90
   1  -8  -6   32.60   10.60
  -1   8   6   36.40    5.60
  -1   8   6   33.90    7.40
  -1   8   6   32.80    7.80
  -1   8   6   32.90    6.60
  -1   8   6   29.80    5.80
   0  -8  -6  322.17   21.30
   0  -8  -6  288.07   24.10
   0   8   6  323.07   19.70
   0   8   6  341.37   20.60
   0   8   6  332.37   23.00
   0   8   6  278.97   22.10
   0   8   6  357.66   31.80
   0   8   6  288.07   23.30
  -1  -8  -6    1.70    4.40
  -1  -8  -6    7.20    6.10
   1   8   6    4.90   10.10
   1   8   6   -1.60    5.10
   1   8   6   11.60    3.60
   1   8   6   -0.50    3.00
   1   8   6    1.10    3.40
   1   8   6    1.40    6.30
   1   8   6   -9.70    4.80
  -2  -8  -6    9.60    6.70
  -2  -8  -6    5.60    5.90
   2   8   6    4.70    4.30
   2   8   6    4.80    6.10
   2   8   6    0.60    3.90
   2   8   6    5.10    3.80
   2   8   6    2.40    3.40
  -3  -8  -6   66.39    8.60
   3   8   6   83.29   12.20
   3   8   6   76.39    6.30
   3   8   6   70.59    7.00
   3   8   6   85.89   10.30
   3   8   6   65.49    6.40
  -4  -8  -6   28.30    9.10
  -4  -8  -6   34.80    5.60
   4   8   6   30.20    4.50
   4   8   6   28.60    3.80
   4   8   6   23.70    5.00
   4   8   6   24.90    3.80
   2  -9  -6   78.69    8.20
   2  -9  -6   95.49   16.00
  -2   9   6   84.29    6.50
  -2   9   6   87.29   10.20
  -2   9   6   93.99    6.70
  -2   9   6   60.89    7.10
   1  -9  -6   28.20    8.40
   1  -9  -6   32.40    5.90
  -1   9   6   34.20    5.80
  -1   9   6   32.70    6.60
  -1   9   6   29.70    6.60
  -1   9   6   37.70    4.60
  -1   9   6   38.40    5.40
   0  -9  -6   94.79   11.90
   0  -9  -6  104.59    9.30
   0   9   6  102.09    7.90
   0   9   6   77.19   10.30
   0   9   6   81.49   11.00
   0   9   6  101.29    8.20
   0   9   6   92.49    9.40
  -1  -9  -6  106.39    9.60
  -1  -9  -6   95.79   11.80
   1   9   6  104.29    9.20
   1   9   6   84.69   11.00
   1   9   6  123.09    8.80
   1   9   6   99.29   10.30
  -2  -9  -6   29.20    6.40
  -2  -9  -6   23.70    4.60
   2   9   6   24.00    4.40
   2   9   6   19.40    8.40
   2   9   6   18.40    5.30
   2   9   6   21.60    3.40
   2   9   6   27.60    4.00
  -3  -9  -6    0.50    2.40
  -3  -9  -6    1.20    4.50
   3   9   6   -1.80    2.40
   3   9   6    1.70    2.00
   3   9   6   -2.50    4.70
   3   9   6    5.20    3.40
  -1  10   6   53.89    4.60
  -1  10   6   60.59    5.50
  -1  10   6   37.50    5.60
  -1  10   6   42.40    6.40
   0 -10  -6    8.10    2.50
   0  10   6    3.20    3.20
   0  10   6    7.90    2.60
   0  10   6    2.50    5.10
   0  10   6    6.60    3.80
   0  10   6    2.20    2.80
   1  10   6   83.99    6.40
   1  10   6   78.79    8.50
   1  10   6   89.49    6.10
   1  10   6   70.19    8.60
   2  10   6    8.20    3.20
   2  10   6    5.80    4.70
   2  10   6    3.70    2.10
   2  10   6    7.40    2.00
   2   7  -7   43.50    4.50
   2   7  -7   50.39    4.50
  -2  -7   7   29.40    4.70
   1   7  -7    2.60    3.00
   1   7  -7    2.00    2.20
  -1  -7   7    0.60    4.90
  -1  -7   7    8.80   11.70
  -1  -7   7    4.20    7.70
   0   7  -7   -1.40    2.40
   0   7  -7    4.50    3.60
   0   7  -7    1.50    3.80
   0  -7   7   -1.20    4.00
   0  -7   7    1.70    4.80
   0  -7   7    1.20    4.60
  -1   7  -7   39.70    3.60
  -1   7  -7   37.60    7.80
  -1   7  -7   43.20    4.50
   1  -7   7   32.40    8.90
   1  -7   7   39.10    6.10
  -2   7  -7    8.80    3.10
  -2   7  -7    6.90    4.00
   2  -7   7    1.80    2.90
   2  -7   7    4.50    5.80
   3   6  -7   -1.50    2.90
   3   6  -7    4.10    3.30
   3   6  -7    1.30    2.10
  -3  -6   7   -3.00    3.90
  -3  -6   7    1.40    0.90
   2   6  -7    9.90    3.20
   2   6  -7   15.20    4.90
   2   6  -7   17.30    3.80
  -2  -6   7    8.80    4.10
  -2  -6   7   11.50    5.50
  -2  -6   7   10.30    2.50
  -2  -6   7   16.40    8.40
   1   6  -7   17.00    4.60
   1   6  -7    6.10    5.30
   1   6  -7   20.40    4.60
  -1  -6   7   13.20    7.80
  -1  -6   7   22.40    4.20
  -1  -6   7   26.50    6.70
  -1  -6   7   24.20   14.00
   0   6  -7    2.80    4.80
   0   6  -7    0.30    4.50
   0   6  -7   -0.70    3.00
   0  -6   7    1.20    3.80
   0  -6   7   -0.10    7.70
   0  -6   7    1.40    1.90
  -1   6  -7   32.40    4.80
  -1   6  -7   28.10    7.90
  -1   6  -7   25.50    4.80
   1  -6   7   30.50    3.80
   1  -6   7   21.20    5.20
   1  -6   7   21.60    9.70
  -2   6  -7   44.50    5.50
  -2   6  -7   36.60    7.00
   2  -6   7   37.20    9.20
   2  -6   7   33.20    6.90
   2  -6   7   49.30    4.30
  -3   6  -7   29.20    3.40
  -3   6  -7   20.30    5.70
   3  -6   7   27.30    9.20
   3  -6   7   20.60    6.00
   3  -6   7   31.70    3.10
   3   5  -7   13.40    4.20
   3   5  -7   19.00    3.10
   3   5  -7    9.30    6.30
  -3  -5   7   20.00    8.80
  -3  -5   7   11.80    5.80
  -3  -5   7   16.60    3.20
  -3  -5   7   17.30    5.40
   2   5  -7   21.50    5.00
   2   5  -7   16.30    4.60
   2   5  -7   23.60    3.00
   2   5  -7   16.80    7.10
  -2  -5   7   26.00    7.80
  -2  -5   7   14.30    7.20
  -2  -5   7   21.90    4.30
  -2  -5   7   22.10    8.60
   1   5  -7   28.10    5.80
   1   5  -7   18.70    5.60
   1   5  -7   23.70    5.10
   1   5  -7   18.10    2.60
   1   5  -7   25.00    5.10
  -1  -5   7   23.00    3.80
  -1  -5   7   21.60    6.20
  -1  -5   7   22.70   11.60
  -1  -5   7   22.60    6.80
   0   5  -7    9.20    5.80
   0   5  -7   19.50    5.20
   0   5  -7   15.20    6.10
   0  -5   7   17.60    3.20
   0  -5   7   12.00    6.40
   0  -5   7   15.90   10.70
  -1   5  -7   18.80   11.30
  -1   5  -7   16.30    3.00
  -1   5  -7   28.60    6.50
  -1   5  -7   29.30    4.30
   1  -5   7   11.10   10.60
   1  -5   7   23.30    3.60
   1  -5   7   19.10    7.00
  -2   5  -7    4.30    2.00
  -2   5  -7   -1.60    3.00
  -2   5  -7   -1.00    2.00
  -2   5  -7    0.00    1.80
  -2   5  -7    1.40    5.60
   2  -5   7   -1.30    8.60
   2  -5   7    0.60    2.30
   2  -5   7   -3.00    4.10
  -3   5  -7    4.20    2.30
  -3   5  -7    0.00    1.60
  -3   5  -7    5.50    4.60
   3  -5   7   -1.90    5.60
   3  -5   7    1.30    1.90
   3  -5   7   10.90    9.50
  -4   5  -7   48.10    3.90
  -4   5  -7   45.50    3.20
   4  -5   7   49.80    6.40
   4  -5   7   54.19    4.50
   4   4  -7   43.40    3.10
   4   4  -7   40.80    6.90
  -4  -4   7   56.49    4.90
  -4  -4   7   46.20    5.60
   3   4  -7   55.49   10.20
   3   4  -7   59.09    7.80
   3   4  -7   55.29    6.40
   3   4  -7   50.09    4.90
  -3  -4   7   51.29    7.80
  -3  -4   7   40.00   11.50
  -3  -4   7   58.99    6.90
   2   4  -7    4.80    4.20
   2   4  -7    8.10    4.30
   2   4  -7    5.10    2.80
   2   4  -7   -2.80    2.40
  -2  -4   7    9.20    3.10
  -2  -4   7    5.20    6.80
  -2  -4   7    4.30    5.10
  -2  -4   7    6.40   11.50
   1   4  -7  100.79    9.40
   1   4  -7   88.59   10.50
   1   4  -7  107.19   11.60
   1   4  -7  108.79    8.00
   1   4  -7   96.99    9.40
  -1  -4   7  104.39   12.40
  -1  -4   7   97.29   17.00
  -1  -4   7  115.49    9.00
  -1  -4   7  103.79   11.10
   0   4  -7    4.50    3.80
   0   4  -7    6.50    5.60
   0   4  -7    6.90    5.30
   0   4  -7    8.10    2.70
   0  -4   7    5.10   10.30
   0  -4   7    7.30    2.60
   0  -4   7   10.10    6.50
  -1   4  -7   38.40    4.00
  -1   4  -7   38.30    5.70
  -1   4  -7   35.60    8.10
  -1   4  -7   45.90    8.20
  -1   4  -7   48.70    6.30
   1  -4   7   34.60    5.30
   1  -4   7   29.10   12.00
   1  -4   7   32.70    6.60
  -2   4  -7   14.90    3.00
  -2   4  -7   10.80    3.60
  -2   4  -7   25.30    4.40
  -2   4  -7   13.00    5.40
  -2   4  -7   21.20    9.40
   2  -4   7   14.00   11.40
   2  -4   7   10.30    3.40
   2  -4   7   13.00    6.90
  -3   4  -7   31.30    4.00
  -3   4  -7   31.50    4.30
  -3   4  -7   22.70    7.60
  -3   4  -7   25.50    3.50
  -3   4  -7   24.80    5.80
   3  -4   7   32.20   10.30
   3  -4   7   29.20    6.60
   3  -4   7   33.50    4.40
  -4   4  -7   -1.10    1.30
  -4   4  -7    0.60    1.40
   4  -4   7    1.10    4.00
   4  -4   7   -1.10    1.70
   4  -4   7    7.40    8.30
   4   3  -7   40.50    4.00
   4   3  -7   26.80    6.30
  -4  -3   7   16.40    6.60
  -4  -3   7   26.90    6.10
  -4  -3   7   34.50    4.50
   3   3  -7   21.80    4.40
   3   3  -7   32.90    4.10
   3   3  -7   32.20    5.10
  -3  -3   7   21.20    6.30
  -3  -3   7   23.10    6.80
  -3  -3   7   32.10    5.00
  -3  -3   7   28.60    9.70
   2   3  -7   12.60    3.90
   2   3  -7   24.50    4.80
   2   3  -7   15.90    3.20
   2   3  -7   11.90    4.60
  -2  -3   7   20.10    4.50
  -2  -3   7    7.00    6.00
  -2  -3   7   14.90    7.50
   1   3  -7  233.98   19.00
   1   3  -7  243.88   19.40
   1   3  -7  252.57   15.10
   1   3  -7  239.98   15.90
  -1  -3   7  242.98   19.20
  -1  -3   7  262.97   16.50
  -1  -3   7  222.78   17.70
  -1  -3   7  239.68   24.90
  -1  -3   7  234.58   23.90
   0   3  -7  195.98   17.50
   0   3  -7  187.88   13.70
   0   3  -7  192.08   11.80
   0   3  -7  153.18   12.80
   0   3  -7  176.68   15.10
   0  -3   7  218.78   21.40
   0  -3   7  183.08   20.60
   0  -3   7  179.28   15.90
   0  -3   7  184.68   12.90
  -1   3  -7    1.20    2.40
  -1   3  -7    2.80    2.60
  -1   3  -7    2.80    3.00
  -1   3  -7    3.90    5.70
   1  -3   7   -0.60    3.10
   1  -3   7   -1.10    9.30
   1  -3   7    1.20    2.70
   1  -3   7    2.50    4.30
  -2   3  -7  275.67   17.80
  -2   3  -7  303.07   19.00
  -2   3  -7  304.37   19.00
  -2   3  -7  285.87   21.60
  -2   3  -7  305.07   23.30
  -2   3  -7  306.27   17.60
   2  -3   7  303.87   22.20
   2  -3   7  291.37   41.70
   2  -3   7  312.47   19.10
   2  -3   7  278.87   28.10
  -3   3  -7   -7.10    9.60
  -3   3  -7    0.30    2.30
  -3   3  -7    1.50    2.20
  -3   3  -7    1.30    2.50
   3  -3   7    9.20   11.60
   3  -3   7    1.30    3.10
   3  -3   7    1.90    7.30
  -4   3  -7    6.70    2.60
  -4   3  -7    7.60    2.30
  -4   3  -7    4.70    2.00
   4  -3   7    9.50    6.70
   4  -3   7   -2.90    7.80
   4  -3   7    8.30    2.70
  -5   3  -7   25.80    3.30
  -5   3  -7   20.60    2.10
   5  -3   7   20.30    2.90
   4   2  -7   -0.40    2.80
  -4  -2   7    0.60    3.70
  -4  -2   7    2.90    5.10
  -4  -2   7    7.60    3.10
   3   2  -7   83.59    8.00
   3   2  -7   77.69    7.90
   3   2  -7   80.69    7.50
   3   2  -7   91.49   10.90
  -3  -2   7   67.29   10.40
  -3  -2   7   72.29   14.20
  -3  -2   7   93.49    8.60
  -3  -2   7   86.49   11.10
   2   2  -7   40.60    5.20
   2   2  -7   31.10    5.10
   2   2  -7   44.10    8.20
  -2  -2   7   39.20    9.00
  -2  -2   7   36.10    9.20
  -2  -2   7   32.50    6.00
  -2  -2   7   36.80   13.30
   1   2  -7   22.60    5.50
   1   2  -7   31.40    4.90
   1   2  -7   30.10    4.30
   1   2  -7   39.30    8.30
   1   2  -7   18.20    4.00
  -1  -2   7   41.00    8.60
  -1  -2   7   32.10   12.30
  -1  -2   7   25.90    5.20
  -1  -2   7   22.90    7.80
  -1  -2   7   24.70    7.70
   0   2  -7 1333.57   73.09
   0   2  -7 1367.06   70.79
   0   2  -7 1173.68   69.49
   0   2  -7 1282.37   69.19
   0   2  -7 1280.47   72.89
   0   2  -7 1311.77   69.89
   0  -2   7 1328.97   70.59
   0  -2   7 1303.27   76.49
   0  -2   7 1249.88   71.79
   0  -2   7 1270.97   79.09
  -1   2  -7  196.88   12.50
  -1   2  -7  206.98   13.60
  -1   2  -7  207.28   17.90
  -1   2  -7  195.28   15.80
  -1   2  -7  192.08   12.60
  -1   2  -7  192.48   12.50
   1  -2   7  203.48   15.50
   1  -2   7  233.98   22.20
   1  -2   7  204.88   13.50
   1  -2   7  193.18   20.90
  -2   2  -7    1.80    2.70
  -2   2  -7    1.70    5.00
  -2   2  -7    9.80    3.70
  -2   2  -7    4.50    2.10
  -2   2  -7    3.00    1.70
  -2   2  -7   -1.80    3.20
   2  -2   7    5.10    6.20
   2  -2   7    4.90    2.60
   2  -2   7   -5.50    5.20
   2  -2   7   -0.50    6.30
   2  -2   7    2.80    1.60
   2  -2   7    2.50    9.80
  -3   2  -7  176.28   11.90
  -3   2  -7  183.68   14.10
  -3   2  -7  170.98   11.40
  -3   2  -7  176.98   12.40
  -3   2  -7  153.68   11.20
   3  -2   7  185.58   23.70
   3  -2   7  166.98   11.20
   3  -2   7  182.68   16.90
   3  -2   7  188.38   12.80
  -4   2  -7   30.10    4.30
  -4   2  -7   21.70    3.40
  -4   2  -7   16.90    4.00
   4  -2   7   23.40    3.10
   4  -2   7   46.50   14.10
   4  -2   7   17.10    4.00
   4  -2   7   15.10    9.00
  -5   2  -7   -0.50    2.40
  -5   2  -7    2.20    1.20
   5  -2   7   -0.80    1.80
   5  -2   7    1.30    1.30
   4   1  -7  101.59    7.70
  -4  -1   7  101.19    8.60
  -4  -1   7  131.99   19.50
  -4  -1   7   87.79    7.90
   3   1  -7   69.99    6.90
   3   1  -7   82.29    8.50
   3   1  -7   78.29   10.10
  -3  -1   7   71.79   10.40
  -3  -1   7   74.09    8.60
  -3  -1   7   73.79   13.60
  -3  -1   7   75.09   11.90
   2   1  -7  437.76   24.70
   2   1  -7  400.46   24.80
  -2  -1   7  393.86   31.40
  -2  -1   7  423.76   27.80
  -2  -1   7  423.96   33.20
  -2  -1   7  395.56   25.00
  -2  -1   7  406.96   29.00
  -2  -1   7  448.76   26.20
   1   1  -7  264.57   16.00
   1   1  -7  250.37   24.20
   1   1  -7  266.17   19.00
   1   1  -7  290.17   17.30
  -1  -1   7  245.88   23.80
  -1  -1   7  241.38   16.20
  -1  -1   7  260.87   16.00
  -1  -1   7  262.07   19.60
  -1  -1   7  259.37   20.20
  -1  -1   7  268.47   17.30
  -1  -1   7  287.77   24.70
   0   1  -7  588.14   33.40
   0   1  -7  617.84   36.50
   0   1  -7  590.24   35.40
   0   1  -7  590.04   33.60
   0   1  -7  592.44   32.60
   0   1  -7  561.94   44.40
   0  -1   7  601.04   41.30
   0  -1   7  546.65   32.50
   0  -1   7  557.04   39.40
   0  -1   7  606.74   35.20
   0  -1   7  591.04   33.60
  -1   1  -7  251.37   20.20
  -1   1  -7  309.07   20.80
  -1   1  -7  293.37   17.30
  -1   1  -7  285.47   17.80
  -1   1  -7  261.87   27.90
  -1   1  -7  295.47   18.40
   1  -1   7  305.57   20.30
   1  -1   7  323.57   26.90
   1  -1   7  294.67   18.00
   1  -1   7  240.38   25.00
   1  -1   7  370.56   25.50
  -2   1  -7   82.89   11.30
  -2   1  -7   86.39    8.70
  -2   1  -7   83.39    6.90
  -2   1  -7   89.39    7.20
   2  -1   7   79.09   16.70
   2  -1   7   70.19   13.40
   2  -1   7   80.49    6.70
   2  -1   7  104.29   11.50
   2  -1   7   87.79    7.60
   2  -1   7   95.99   16.10
   2  -1   7   85.59   11.40
  -3   1  -7   53.89    5.90
  -3   1  -7   56.19    8.10
  -3   1  -7   55.99    6.50
  -3   1  -7   56.99    5.50
  -3   1  -7   60.89    6.70
   3  -1   7   55.49   12.80
   3  -1   7   55.99    6.10
   3  -1   7   47.40    6.50
   3  -1   7   61.19   13.60
  -4   1  -7  120.59    9.10
  -4   1  -7  131.59   10.60
  -4   1  -7  132.59    9.50
  -4   1  -7  123.69    9.40
   4  -1   7  125.99    9.20
   4  -1   7  141.99   11.80
   4  -1   7  123.19   10.10
  -5   1  -7   21.90    4.70
  -5   1  -7   10.50    3.40
  -5   1  -7   15.70    1.80
   5  -1   7   14.40    2.50
   5  -1   7   16.70    3.10
   5   0  -7    6.40    2.50
   5   0  -7    8.30    1.90
  -5   0   7    5.60    1.90
  -5   0   7    7.90    2.40
   4   0  -7  245.78   15.10
  -4   0   7  226.78   18.80
  -4   0   7  222.98   15.40
  -4   0   7  217.08   15.40
   3   0  -7  269.57   21.90
   3   0  -7  334.87   19.60
   3   0  -7  318.17   19.10
  -3   0   7  253.47   20.90
  -3   0   7  280.97   19.20
  -3   0   7  331.47   20.40
   2   0  -7  465.45   26.40
   2   0  -7  434.66   29.30
   2   0  -7  457.45   27.20
  -2   0   7  442.36   27.40
  -2   0   7  461.15   33.50
  -2   0   7  438.26   34.50
  -2   0   7  438.46   29.70
  -2   0   7  466.55   29.20
   1   0  -7  138.79    9.60
   1   0  -7  136.99   16.30
   1   0  -7  111.29    9.40
   1   0  -7  139.99   11.40
  -1   0   7  143.79   14.70
  -1   0   7  133.69    9.80
  -1   0   7  125.09    9.30
  -1   0   7  157.58   12.50
  -1   0   7  110.39    9.90
   0   0  -7    7.60    2.60
   0   0  -7    6.90    2.60
   0   0  -7    6.70    2.50
   0   0  -7    8.10    6.60
   0   0  -7    5.00    2.60
   0   0  -7   19.10    4.40
   0   0   7   15.20    8.30
   0   0   7    6.40    2.50
   0   0   7    8.30    4.90
   0   0   7    5.30    2.60
   0   0   7    2.40    3.40
  -1   0  -7  124.19    9.10
  -1   0  -7  130.09    9.70
  -1   0  -7  121.99   18.00
  -1   0  -7  142.09   13.10
  -1   0  -7  135.99   10.40
  -1   0  -7  160.88   10.50
  -1   0  -7  141.29   10.40
   1   0   7  117.99   15.60
   1   0   7  134.99   12.30
   1   0   7  140.19   12.50
   1   0   7  132.59    9.90
  -2   0  -7   -0.10    3.10
  -2   0  -7    5.30    2.90
  -2   0  -7    7.80    3.60
  -2   0  -7    2.30    5.90
  -2   0  -7    2.70    3.00
  -2   0  -7   10.70    5.00
   2   0   7    9.20    5.00
   2   0   7   -1.20    6.00
   2   0   7    7.70    5.50
   2   0   7    9.20    9.20
   2   0   7    6.10    2.50
   2   0   7    4.80    2.40
  -3   0  -7   36.50    5.60
  -3   0  -7   35.60    5.80
  -3   0  -7   37.60    5.40
   3   0   7   35.20    4.30
   3   0   7   35.20    6.80
   3   0   7   36.40    6.00
  -4   0  -7  257.87   16.50
  -4   0  -7  253.07   17.20
  -4   0  -7  269.87   17.70
   4   0   7  258.87   15.50
   4   0   7  239.48   16.10
  -5   0  -7   13.50    2.90
  -5   0  -7   14.80    3.00
  -5   0  -7    8.80    2.60
   5   0   7   14.00    2.70
   5   0   7   11.10    2.60
   5  -1  -7    1.00    1.70
   5  -1  -7    2.70    2.20
  -5   1   7    5.70    3.40
  -5   1   7    2.60    1.20
   4  -1  -7   81.39    6.80
   4  -1  -7   65.99    6.40
  -4   1   7   66.19    9.10
  -4   1   7   69.29    7.00
  -4   1   7   55.79    6.80
   3  -1  -7  395.76   25.20
   3  -1  -7  394.46   27.60
   3  -1  -7  422.16   24.70
  -3   1   7  423.46   25.30
  -3   1   7  387.76   25.10
  -3   1   7  391.66   31.10
   2  -1  -7   35.90    5.50
   2  -1  -7   40.90    7.70
   2  -1  -7   28.60   10.10
  -2   1   7   39.60    7.10
  -2   1   7   34.80    6.20
  -2   1   7   38.40    7.30
  -2   1   7   33.90    7.80
  -2   1   7   34.10    8.70
   1  -1  -7   11.20    3.30
   1  -1  -7    4.60    2.40
   1  -1  -7   10.60    4.50
   1  -1  -7    8.30    4.20
   1  -1  -7    6.90    2.80
   1  -1  -7   14.40    7.30
   1  -1  -7    8.60    5.40
  -1   1   7   21.20    9.40
  -1   1   7    7.20    3.40
  -1   1   7    6.50    4.90
  -1   1   7    4.90    2.40
  -1   1   7    3.50    4.30
  -1   1   7    5.50    2.90
   0  -1  -7  173.38   20.20
   0  -1  -7  181.48   16.80
   0  -1  -7  192.38   13.20
   0  -1  -7  194.08   12.20
   0  -1  -7  186.28   12.60
   0  -1  -7  185.18   12.40
   0  -1  -7  177.78   13.30
   0   1   7  182.98   12.20
   0   1   7  204.78   18.10
   0   1   7  183.08   17.30
   0   1   7  183.68   11.80
   0   1   7  169.98   13.60
   0   1   7  192.78   14.00
  -1  -1  -7  151.58   10.30
  -1  -1  -7  158.88   10.80
  -1  -1  -7  148.39   19.80
  -1  -1  -7  163.48   15.00
  -1  -1  -7  150.78   11.20
   1   1   7  148.49   12.00
   1   1   7  176.88   14.20
   1   1   7  153.68   15.30
   1   1   7  163.48   12.10
   1   1   7  152.88    9.80
   1   1   7  147.39   16.30
   1   1   7  146.19   10.70
  -2  -1  -7   35.00    8.30
  -2  -1  -7   30.60    8.80
  -2  -1  -7   31.10    5.90
  -2  -1  -7   33.60    5.00
  -2  -1  -7   27.40    3.80
  -2  -1  -7   22.00   11.50
  -2  -1  -7   27.90    4.90
   2   1   7   29.10    5.40
   2   1   7   29.90    5.10
   2   1   7   34.60    4.50
   2   1   7   24.10    8.30
   2   1   7   19.60    7.90
  -3  -1  -7   84.09    8.50
  -3  -1  -7   80.49    8.40
  -3  -1  -7   76.49    7.10
  -3  -1  -7   98.59   13.60
  -3  -1  -7   79.99   10.40
   3   1   7   82.19    7.20
   3   1   7   79.89    7.80
   3   1   7   80.99   14.80
  -4  -1  -7   35.10    6.80
  -4  -1  -7   38.30    5.00
  -4  -1  -7   37.00    6.00
   4   1   7   29.40    5.30
   4   1   7   37.40    4.40
   4   1   7   66.19   11.40
  -5  -1  -7  190.68   13.00
  -5  -1  -7  178.08   11.90
  -5  -1  -7  178.48   13.10
   5   1   7  194.38   12.00
   4  -2  -7  122.09    8.40
   4  -2  -7  107.99    9.10
  -4   2   7   94.89    8.00
  -4   2   7  100.89   10.10
  -4   2   7  106.79    8.60
  -4   2   7   84.99    7.60
   3  -2  -7   18.30    5.30
   3  -2  -7   43.70    8.10
   3  -2  -7   35.40    5.20
  -3   2   7   24.40    7.10
  -3   2   7   15.20    4.10
  -3   2   7   30.60    7.50
  -3   2   7   26.60    4.90
   2  -2  -7   -5.70    6.40
   2  -2  -7    0.10    4.80
   2  -2  -7    7.40    4.30
   2  -2  -7    1.60    7.30
   2  -2  -7    3.00    3.60
  -2   2   7    0.50    2.80
  -2   2   7    2.60    3.90
  -2   2   7   -1.90    3.40
  -2   2   7    1.10    4.00
   1  -2  -7  210.88   15.80
   1  -2  -7  188.38   23.10
   1  -2  -7  206.58   15.70
   1  -2  -7  217.48   19.60
   1  -2  -7  226.58   13.50
   1  -2  -7  220.28   13.70
   1  -2  -7  220.08   14.70
  -1   2   7  202.08   13.50
  -1   2   7  216.68   15.80
  -1   2   7  196.48   13.20
  -1   2   7  193.58   19.50
  -1   2   7  238.78   15.10
  -1   2   7  217.78   14.40
   0  -2  -7    3.30    5.90
   0  -2  -7    5.30    2.60
   0  -2  -7    5.70    2.20
   0  -2  -7   -0.70    3.80
   0  -2  -7    3.70    3.00
   0  -2  -7    3.30    1.80
   0  -2  -7    3.20    2.00
   0   2   7    9.80    5.10
   0   2   7   -0.50    3.30
   0   2   7    2.30    6.60
   0   2   7   -0.90    2.60
   0   2   7    2.60    2.00
   0   2   7    4.10    2.30
   0   2   7   -2.40    2.90
  -1  -2  -7  202.78   14.20
  -1  -2  -7  197.78   13.20
  -1  -2  -7  183.98   13.70
  -1  -2  -7  196.58   12.70
  -1  -2  -7  215.78   18.00
  -1  -2  -7  214.88   27.00
   1   2   7  219.48   19.90
   1   2   7  213.48   17.20
   1   2   7  201.68   14.20
   1   2   7  196.28   12.10
   1   2   7  194.08   12.90
   1   2   7  205.68   17.90
  -2  -2  -7   74.09   16.40
  -2  -2  -7   87.79   10.70
  -2  -2  -7   71.39    6.40
  -2  -2  -7   78.39    7.80
  -2  -2  -7   72.49    7.60
   2   2   7   70.39    6.50
   2   2   7   73.99    9.50
   2   2   7   91.69    9.70
   2   2   7   80.29    6.00
   2   2   7   75.79   11.50
  -3  -2  -7   26.80    5.70
  -3  -2  -7   17.20    7.20
  -3  -2  -7   38.40   10.20
  -3  -2  -7   26.90    5.90
  -3  -2  -7   21.30   10.50
  -3  -2  -7   37.70   12.70
   3   2   7   31.00    5.50
   3   2   7   21.50    3.80
   3   2   7   31.50    4.30
   3   2   7   19.80    9.30
  -4  -2  -7   53.89    5.60
  -4  -2  -7   54.79   10.80
  -4  -2  -7   58.49    7.80
  -4  -2  -7   72.29    9.50
  -4  -2  -7   49.20    6.80
   4   2   7   49.10    5.80
   4   2   7   46.20    5.00
   4   2   7   63.99   11.70
  -5  -2  -7   30.30    4.10
  -5  -2  -7   19.00    4.90
  -5  -2  -7   28.20    4.80
   5   2   7   19.20    3.50
   4  -3  -7  149.29   10.70
   4  -3  -7  140.39   10.00
  -4   3   7  122.59   10.10
  -4   3   7  113.69   10.80
  -4   3   7  133.39   10.70
   3  -3  -7   61.99   13.10
   3  -3  -7   73.09   16.90
   3  -3  -7   50.99    7.60
   3  -3  -7   61.09    7.30
  -3   3   7   51.49    6.70
  -3   3   7   46.40    8.60
  -3   3   7   60.39    7.80
   2  -3  -7   41.70    7.10
   2  -3  -7   33.10    6.10
   2  -3  -7   28.10    6.60
   2  -3  -7   25.60   10.10
   2  -3  -7   31.40   10.40
   2  -3  -7   31.50    8.10
  -2   3   7   24.30    6.50
  -2   3   7   33.20    5.70
  -2   3   7   35.10    8.00
  -2   3   7   37.80    5.60
  -2   3   7   34.30    5.20
   1  -3  -7    2.80    2.30
   1  -3  -7    2.20    3.20
   1  -3  -7    2.10    2.20
   1  -3  -7    4.40    3.00
   1  -3  -7    1.70    5.40
   1  -3  -7    6.40    7.70
  -1   3   7    5.30    3.40
  -1   3   7    3.60    2.80
  -1   3   7    3.80    8.60
  -1   3   7    1.60    4.70
  -1   3   7    1.90    2.70
  -1   3   7   -1.60    3.00
  -1   3   7    2.50    2.50
  -1   3   7    2.70    3.10
   0  -3  -7 1000.20   63.59
   0  -3  -7 1101.69   59.19
   0  -3  -7 1015.90   58.19
   0  -3  -7 1071.99   57.19
   0  -3  -7 1019.90   58.29
   0  -3  -7 1074.99   71.69
   0   3   7 1102.19   61.59
   0   3   7 1035.10   57.29
   0   3   7 1059.49   61.09
   0   3   7 1069.99   68.19
   0   3   7 1054.19   56.79
   0   3   7 1067.49   62.99
  -1  -3  -7    8.00    3.00
  -1  -3  -7   11.50    7.50
  -1  -3  -7    1.30    4.60
  -1  -3  -7    6.30    3.20
   1   3   7    3.50    1.90
   1   3   7    5.90    2.10
   1   3   7    6.50    5.60
   1   3   7    1.90    3.20
   1   3   7    7.50    3.40
   1   3   7    5.10    5.00
   1   3   7    6.50    6.00
  -2  -3  -7  269.47   26.80
  -2  -3  -7  239.58   20.90
  -2  -3  -7  239.58   18.40
  -2  -3  -7  249.08   17.00
  -2  -3  -7  234.28   27.40
  -2  -3  -7  243.68   16.80
   2   3   7  204.08   14.50
   2   3   7  252.97   16.10
   2   3   7  236.88   18.00
   2   3   7  243.38   14.40
   2   3   7  246.78   17.00
   2   3   7  246.48   21.40
  -3  -3  -7   49.90   13.10
  -3  -3  -7   56.39    7.80
  -3  -3  -7   62.59   16.20
  -3  -3  -7   47.50    6.90
  -3  -3  -7   74.99   16.70
   3   3   7   50.49    5.00
   3   3   7   39.90    4.50
   3   3   7   56.19    9.00
   3   3   7   38.10   10.90
   3   3   7   52.09    6.80
  -4  -3  -7  286.17   26.20
  -4  -3  -7  302.07   18.30
  -4  -3  -7  310.07   21.00
  -4  -3  -7  341.97   21.90
  -4  -3  -7  297.77   22.40
   4   3   7  321.87   18.30
   4   3   7  249.28   28.10
  -5  -3  -7   12.30    3.90
  -5  -3  -7    9.90    3.50
  -5  -3  -7    9.20    4.20
  -5  -3  -7   14.90    3.30
   5   3   7   13.30    2.50
   4  -4  -7    5.50    2.90
  -4   4   7    6.90    3.30
  -4   4   7    2.80    4.50
  -4   4   7    4.30    2.60
   3  -4  -7  139.59   11.00
   3  -4  -7  112.19   13.00
   3  -4  -7  100.69   17.40
  -3   4   7  104.99   10.70
  -3   4   7  102.79   10.00
  -3   4   7  107.99   10.40
  -3   4   7  123.19    9.40
   2  -4  -7   78.69   14.20
   2  -4  -7   99.19    9.70
   2  -4  -7   88.89   11.50
  -2   4   7   88.29    8.70
  -2   4   7   92.79   14.00
  -2   4   7   81.39    8.10
  -2   4   7   90.09    9.90
  -2   4   7   92.79    8.30
  -2   4   7   88.29    8.60
   1  -4  -7   60.99    8.80
   1  -4  -7   49.90    8.30
   1  -4  -7   57.59   10.20
   1  -4  -7   56.49   13.30
   1  -4  -7   63.89    7.40
  -1   4   7   53.39   11.40
  -1   4   7   47.30    5.90
  -1   4   7   58.89    8.00
  -1   4   7   54.09    6.60
   0  -4  -7  622.94   38.80
   0  -4  -7  539.45   33.80
   0  -4  -7  579.54   46.70
   0  -4  -7  613.54   35.30
   0   4   7  587.84   32.60
   0   4   7  573.94   33.40
   0   4   7  586.94   33.70
   0   4   7  606.24   34.00
   0   4   7  572.64   41.10
   0   4   7  642.44   38.20
  -1  -4  -7 1092.09   59.39
  -1  -4  -7 1114.29   61.29
  -1  -4  -7 1042.40   59.89
  -1  -4  -7  972.80   71.29
  -1  -4  -7 1089.59   64.19
   1   4   7 1180.28   70.79
   1   4   7 1061.99   59.49
   1   4   7 1057.19   58.09
   1   4   7 1134.99   62.89
   1   4   7 1029.80   63.89
   1   4   7 1067.79   58.79
   1   4   7 1142.79   59.79
  -2  -4  -7  543.05   30.60
  -2  -4  -7  517.55   36.60
  -2  -4  -7  499.25   32.00
  -2  -4  -7  462.55   42.30
  -2  -4  -7  503.15   30.40
   2   4   7  518.55   29.90
   2   4   7  487.75   32.90
   2   4   7  473.95   28.20
   2   4   7  506.35   35.50
  -3  -4  -7  310.27   28.00
  -3  -4  -7  332.47   23.00
  -3  -4  -7  327.77   21.80
  -3  -4  -7  333.07   22.10
   3   4   7  337.17   27.50
   3   4   7  329.97   21.10
   3   4   7  321.57   19.10
   3   4   7  341.57   21.40
   3   4   7  324.87   23.80
   3   4   7  327.77   18.90
  -4  -4  -7    6.50    5.60
  -4  -4  -7    4.60    3.40
  -4  -4  -7    0.70    7.00
  -4  -4  -7    4.40    5.50
   4   4   7    7.00    4.10
   4   4   7    3.60    5.60
   4   4   7    4.50    2.00
   4   4   7    2.00    2.70
  -5  -4  -7   42.80    5.70
  -5  -4  -7   49.80    6.70
  -5  -4  -7   39.20    6.00
   5   4   7   37.90    5.70
   5   4   7   46.70    4.00
   4  -5  -7    9.40    2.90
   4  -5  -7    9.40    2.90
  -4   5   7    5.50    3.10
  -4   5   7    8.90    3.00
   3  -5  -7   29.50    5.80
   3  -5  -7   23.90    5.80
   3  -5  -7   23.10    9.40
  -3   5   7   18.70    5.30
  -3   5   7   29.00    4.70
  -3   5   7   31.60    5.90
  -3   5   7   14.50    5.30
  -3   5   7   30.10    4.10
   2  -5  -7  243.98   16.40
   2  -5  -7  203.88   16.50
  -2   5   7  248.18   23.70
  -2   5   7  221.68   14.90
  -2   5   7  210.78   16.70
  -2   5   7  216.18   14.90
  -2   5   7  212.68   15.10
   1  -5  -7   33.50   11.30
   1  -5  -7   48.10    9.90
   1  -5  -7   32.50    6.00
  -1   5   7   45.50    7.40
  -1   5   7   39.20    4.80
  -1   5   7   43.70   11.20
  -1   5   7   33.50    4.90
  -1   5   7   47.70   12.20
  -1   5   7   31.10    5.70
  -1   5   7   42.20    5.50
   0  -5  -7   79.19   10.40
   0  -5  -7   62.19   15.50
   0  -5  -7   67.69   12.10
   0  -5  -7   96.09    8.10
   0   5   7   88.19   13.50
   0   5   7   81.49    7.50
   0   5   7   79.19    7.80
   0   5   7   64.49    6.70
   0   5   7   88.79    8.40
   0   5   7   88.89    9.40
   0   5   7  106.99   12.70
   0   5   7   83.59   13.20
  -1  -5  -7 1892.91  103.39
  -1  -5  -7 1984.90  107.39
  -1  -5  -7 1787.72  117.69
  -1  -5  -7 1864.61  102.19
   1   5   7 1922.41  114.69
   1   5   7 1955.00  105.59
   1   5   7 1869.81  100.19
   1   5   7 1820.22  105.59
  -2  -5  -7   12.30    7.00
  -2  -5  -7    6.20    9.60
  -2  -5  -7   15.60    7.70
  -2  -5  -7   11.50    3.20
  -2  -5  -7   14.60    4.90
   2   5   7   11.00    3.40
   2   5   7   14.50    6.10
   2   5   7    9.70    3.70
   2   5   7   12.40    2.40
   2   5   7   13.10    6.60
  -3  -5  -7   69.09   11.00
  -3  -5  -7   91.39   18.10
  -3  -5  -7   73.49    8.00
   3   5   7   87.89    8.00
   3   5   7   66.79    9.70
   3   5   7   74.69   10.30
   3   5   7   77.69   11.00
   3   5   7   73.39    5.80
   3   5   7   64.19    6.30
  -4  -5  -7   38.50    5.80
  -4  -5  -7   45.40   12.50
  -4  -5  -7   32.80    7.00
  -4  -5  -7   41.00    9.00
   4   5   7   35.80    4.10
   4   5   7   39.90    3.90
   4   5   7   42.40    6.10
   4   5   7   39.00    5.60
   4   5   7   26.90    5.60
  -5  -5  -7   -4.70    5.30
  -5  -5  -7    0.10    2.30
  -5  -5  -7    3.40    2.40
   5   5   7    3.00    2.50
   5   5   7    0.10    1.40
   5   5   7    1.30    2.40
   4  -6  -7   18.10    3.10
   4  -6  -7   16.20    4.50
  -4   6   7   19.90    1.80
  -4   6   7   12.20    3.40
   3  -6  -7   -1.20    4.00
   3  -6  -7    5.40    7.20
   3  -6  -7   -1.10    3.60
  -3   6   7    3.20    3.90
  -3   6   7   -2.10    2.40
  -3   6   7   -1.50    5.80
  -3   6   7    2.70    2.70
  -3   6   7    6.00    2.50
   2  -6  -7   41.90   11.90
   2  -6  -7   29.90    6.30
   2  -6  -7   35.60    5.30
  -2   6   7   29.40    7.10
  -2   6   7   23.80    7.30
  -2   6   7   28.90    4.30
  -2   6   7   25.50    5.50
  -2   6   7   28.30    4.70
   1  -6  -7  410.06   23.70
   1  -6  -7  373.26   29.60
   1  -6  -7  338.77   24.00
  -1   6   7  352.86   25.50
  -1   6   7  355.86   22.30
  -1   6   7  358.86   21.10
  -1   6   7  346.87   28.10
  -1   6   7  387.86   32.30
  -1   6   7  399.96   24.70
  -1   6   7  343.07   22.20
   0  -6  -7   47.00   11.40
   0  -6  -7   42.90    7.70
   0  -6  -7   66.09    6.20
   0   6   7   56.19    5.50
   0   6   7   68.79   13.20
   0   6   7   42.30   12.30
   0   6   7   56.09    5.00
   0   6   7   46.70    6.40
   0   6   7   52.69    8.00
   0   6   7   47.50    6.80
   0   6   7   55.99    7.10
  -1  -6  -7  262.37   28.90
  -1  -6  -7  252.77   18.70
  -1  -6  -7  254.47   21.10
  -1  -6  -7  248.78   16.30
   1   6   7  237.68   16.00
   1   6   7  276.67   18.60
   1   6   7  234.88   14.40
   1   6   7  252.67   16.80
   1   6   7  265.77   22.20
   1   6   7  250.97   28.00
   1   6   7  248.18   15.70
   1   6   7  197.28   19.50
   1   6   7  265.07   16.90
  -2  -6  -7   35.00    5.40
  -2  -6  -7   26.40    7.80
  -2  -6  -7   33.60    5.00
  -2  -6  -7   30.80   11.70
   2   6   7   44.50    5.60
   2   6   7   29.50    5.50
   2   6   7   29.00    4.50
   2   6   7   29.50    5.90
   2   6   7   16.70    6.80
   2   6   7   21.60    7.60
   2   6   7   36.30    3.60
  -3  -6  -7   24.10    8.00
  -3  -6  -7   23.00    4.20
  -3  -6  -7   24.50   10.90
  -3  -6  -7   20.10    4.70
   3   6   7   24.90    3.60
   3   6   7   27.70    5.80
   3   6   7   29.10    6.00
   3   6   7   28.20    8.90
   3   6   7   19.70    5.10
   3   6   7   24.60    3.00
   3   6   7   35.20    4.70
  -4  -6  -7    2.60    2.30
  -4  -6  -7    4.80    3.20
  -4  -6  -7    5.60    4.90
   4   6   7    4.20    1.80
   4   6   7    6.40    3.00
   4   6   7    7.70    5.60
   4   6   7    1.80    1.20
   4   6   7    4.90    6.40
   4   6   7   10.00    2.60
  -5  -6  -7   10.10    3.40
  -5  -6  -7    4.90    1.90
   5   6   7    3.50    2.20
   5   6   7    4.80    3.90
   5   6   7    4.20    1.00
   3  -7  -7    7.10    8.00
   3  -7  -7    0.80    2.60
   3  -7  -7    2.40    5.00
  -3   7   7    2.10    4.20
  -3   7   7    4.40    2.40
  -3   7   7    2.30    2.30
  -3   7   7    2.00    2.30
   2  -7  -7   49.20    5.70
   2  -7  -7   43.40    7.90
   2  -7  -7   37.10   11.30
  -2   7   7   35.20    7.20
  -2   7   7   48.70    3.70
  -2   7   7   38.90    7.20
  -2   7   7   46.50    6.20
  -2   7   7   45.50    5.80
   1  -7  -7  196.78   20.40
   1  -7  -7  170.08   12.60
   1  -7  -7  174.58   13.80
  -1   7   7  168.08   13.50
  -1   7   7  159.58   12.00
  -1   7   7  155.98   15.20
  -1   7   7  171.68   12.70
  -1   7   7  172.38   22.80
  -1   7   7  173.68   16.30
  -1   7   7  168.88   10.00
   0  -7  -7   19.10    8.10
   0  -7  -7   16.60    4.70
   0   7   7   11.80    4.40
   0   7   7   14.50    4.60
   0   7   7   12.90    3.80
   0   7   7   15.10    5.60
   0   7   7   13.40    7.90
  -1  -7  -7   58.49    8.10
  -1  -7  -7   81.49   13.60
  -1  -7  -7   67.49    9.20
   1   7   7   68.69    8.60
   1   7   7   74.19    8.70
   1   7   7   69.29   14.80
   1   7   7   82.99    7.00
   1   7   7  101.19   10.50
   1   7   7   70.89    7.70
   1   7   7   69.59   11.80
  -2  -7  -7   -0.40    7.90
  -2  -7  -7    2.80    2.40
  -2  -7  -7    2.00    5.80
   2   7   7    3.30    4.10
   2   7   7   -0.90    3.30
   2   7   7   -1.00    3.90
   2   7   7   10.60    9.00
   2   7   7    4.20    3.40
  -3  -7  -7    4.80    8.40
  -3  -7  -7   14.90    5.50
  -3  -7  -7   12.00    3.20
  -3  -7  -7   12.60    3.40
   3   7   7   15.20    6.30
   3   7   7   15.50    3.00
   3   7   7   19.60    4.10
   3   7   7   15.30    4.60
   3   7   7   12.80    4.10
  -4  -7  -7   37.00    9.50
  -4  -7  -7   45.90    6.70
  -4  -7  -7   39.90    4.30
  -4  -7  -7   46.70    6.90
   4   7   7   29.60    4.00
   4   7   7   34.00    5.90
   4   7   7   28.10    5.20
   2  -8  -7    1.60    2.00
   2  -8  -7    4.90    4.00
   2  -8  -7    8.10    7.90
  -2   8   7    0.30    2.30
  -2   8   7   -1.00    3.90
  -2   8   7    0.70    4.70
  -2   8   7    1.70    4.50
   1  -8  -7   -0.40    1.70
   1  -8  -7    7.80    8.00
   1  -8  -7    3.90    5.40
  -1   8   7   -0.50    2.30
  -1   8   7    1.10    2.90
  -1   8   7    4.00    6.80
  -1   8   7    4.60    5.10
  -1   8   7    2.70    4.90
   0  -8  -7   37.40   11.40
   0  -8  -7   55.49   11.60
   0   8   7   39.10    5.30
   0   8   7   44.90    6.90
   0   8   7   37.50    8.50
   0   8   7   39.70    5.60
   0   8   7   36.90   10.60
  -1  -8  -7  144.59   15.50
  -1  -8  -7  152.98   14.20
   1   8   7  151.78   11.40
   1   8   7  128.49    9.70
   1   8   7  117.49   14.30
   1   8   7  133.79   11.20
   1   8   7  138.89   11.30
  -2  -8  -7   62.19    9.20
  -2  -8  -7   64.69   11.70
   2   8   7   66.79   10.60
   2   8   7   75.49    7.50
   2   8   7   67.29    9.70
   2   8   7   76.89    6.80
   2   8   7   72.19    6.30
  -3  -8  -7    4.30    4.90
  -3  -8  -7    1.00    6.50
   3   8   7    6.00    2.30
   3   8   7    2.60    3.10
   3   8   7    1.00    7.20
   3   8   7    3.70    2.60
   3   8   7    8.40    5.50
  -4  -8  -7    6.20    2.90
   4   8   7    6.70    2.50
   4   8   7    8.10    3.60
   4   8   7    8.90    1.70
   4   8   7    4.60    3.20
   2  -9  -7    6.10    3.80
  -2   9   7    4.10    2.80
  -2   9   7    0.90    3.40
  -2   9   7   -0.90    1.70
   1  -9  -7    2.50    2.70
   1  -9  -7    6.80    4.30
  -1   9   7    5.90    5.60
  -1   9   7    2.70    3.40
  -1   9   7    0.30    2.50
  -1   9   7   10.10    3.80
  -1   9   7   -3.60    5.00
   0  -9  -7  101.29    9.40
   0  -9  -7   82.79   11.60
   0   9   7   80.59    9.70
   0   9   7  100.59    7.40
   0   9   7   93.69    9.70
   0   9   7   92.89    7.70
   0   9   7   84.19    9.80
  -1  -9  -7   24.00    6.60
  -1  -9  -7   14.30    3.60
   1   9   7   12.40    3.40
   1   9   7   14.00    8.60
   1   9   7   11.60    4.10
   1   9   7   13.90    3.10
  -2  -9  -7  128.69   10.60
   2   9   7  155.18   12.90
   2   9   7  131.19   13.80
   2   9   7  156.28   10.00
   2   9   7  165.28   10.00
   2   9   7  172.38   11.30
  -3  -9  -7   11.40    3.30
   3   9   7   10.10    3.70
   3   9   7   10.40    3.40
   3   9   7   14.10    2.30
   3   9   7    9.40    4.90
   0  10   7   21.90    3.30
   0  10   7   10.10    3.50
   0  10   7   15.30    3.10
   1  10   7   72.09    5.50
   1  10   7   67.49    6.40
   0   7  -8   16.20    3.30
   0   7  -8   20.70    3.10
   0  -7   8   20.30    4.50
   2   6  -8   33.00    4.20
  -2  -6   8   28.70    4.60
  -2  -6   8   25.30    3.10
   1   6  -8   25.90    3.60
   1   6  -8   19.70    4.00
  -1  -6   8   14.20    6.30
  -1  -6   8   30.70    5.80
  -1  -6   8   14.20    3.20
  -1  -6   8   26.70    5.80
   0   6  -8  100.49    7.10
   0  -6   8   97.29   10.50
   0  -6   8   81.19   13.50
   0  -6   8  101.79    7.20
   0  -6   8   80.09    9.00
  -1   6  -8   13.60    3.10
  -1   6  -8   16.10    2.70
  -1   6  -8    7.80    4.40
   1  -6   8   11.90    5.10
   1  -6   8   15.90    2.80
   1  -6   8    8.30    7.10
  -2   6  -8    8.20    2.40
  -2   6  -8    8.30    3.90
   2  -6   8    5.50    1.90
   2  -6   8    1.20    7.90
   2   5  -8   65.69    5.10
   2   5  -8   50.09    7.80
   2   5  -8   41.60    6.40
  -2  -5   8   73.59    6.10
  -2  -5   8   64.39    9.10
  -2  -5   8   44.80    9.10
  -2  -5   8   52.59    7.60
   1   5  -8   23.50    3.80
   1   5  -8   19.90    4.70
  -1  -5   8   14.80    6.40
  -1  -5   8   20.60    3.40
  -1  -5   8   22.40    6.80
  -1  -5   8   16.40   15.90
   0   5  -8  126.59    9.20
   0   5  -8   96.99    9.10
   0   5  -8  114.69    7.00
   0   5  -8   99.69   12.00
   0  -5   8  125.39    8.60
   0  -5   8   99.29   10.30
   0  -5   8   85.79   14.90
  -1   5  -8   53.99    8.30
  -1   5  -8   64.99    7.40
  -1   5  -8   62.29    4.60
  -1   5  -8   62.39    6.50
   1  -5   8   51.49    8.40
   1  -5   8   64.29    5.90
   1  -5   8   50.19   12.60
  -2   5  -8   -1.90    6.20
  -2   5  -8    7.90    3.60
  -2   5  -8    6.80    2.40
  -2   5  -8    6.70    2.10
   2  -5   8    4.20    5.40
   2  -5   8   -4.30    8.70
   2  -5   8    3.40    2.30
  -3   5  -8   26.90    1.90
  -3   5  -8   27.70    3.50
  -3   5  -8   15.80    3.90
   3  -5   8   18.80    7.00
   3  -5   8   29.60    3.70
   3  -5   8   13.00    7.20
   3   4  -8    3.60    4.00
   3   4  -8    7.40    1.60
   3   4  -8    3.10    2.10
   3   4  -8    6.40    1.30
  -3  -4   8    6.40    3.60
  -3  -4   8    9.10    2.70
  -3  -4   8    2.40    5.00
   2   4  -8   11.60    4.50
   2   4  -8   13.80    4.10
   2   4  -8   11.80    2.30
   2   4  -8    8.30    5.30
  -2  -4   8   11.80    3.20
  -2  -4   8   17.80    6.50
  -2  -4   8   11.90    6.70
  -2  -4   8   25.30   18.60
   1   4  -8   45.50    6.20
   1   4  -8   50.39    7.90
   1   4  -8   57.59    5.20
   1   4  -8   59.49    8.70
  -1  -4   8   54.89   14.20
  -1  -4   8   58.39    9.60
  -1  -4   8   52.99    5.80
  -1  -4   8   70.09   10.30
   0   4  -8   12.80    3.80
   0   4  -8   19.30    4.60
   0   4  -8   11.50    5.40
   0   4  -8   14.90    3.10
   0  -4   8   16.20    6.60
   0  -4   8   13.90    3.60
   0  -4   8    9.50    7.90
  -1   4  -8   37.00    8.90
  -1   4  -8   47.90    4.40
  -1   4  -8   51.49    6.30
   1  -4   8   49.60    7.70
   1  -4   8   40.30   13.10
   1  -4   8   51.89    6.00
  -2   4  -8    0.30    2.40
  -2   4  -8    1.20    1.60
  -2   4  -8   -0.30    4.60
  -2   4  -8    0.40    3.30
   2  -4   8    0.90    2.60
   2  -4   8   -0.10    6.60
   2  -4   8   -1.10    9.70
  -3   4  -8    7.90    2.20
  -3   4  -8    3.80    2.30
  -3   4  -8    3.90    2.10
  -3   4  -8    8.40    5.30
   3  -4   8   -7.80    8.00
   3  -4   8    4.30    5.80
   3  -4   8    5.60    2.10
  -4   4  -8   32.60    2.90
   4  -4   8   30.20    3.20
   4  -4   8   17.60    3.90
   3   3  -8   48.20    4.60
   3   3  -8   52.69    4.30
   3   3  -8   44.70    5.30
  -3  -3   8   48.90    5.50
  -3  -3   8   47.90    8.70
  -3  -3   8   43.70    6.60
  -3  -3   8   33.00   10.00
   2   3  -8    1.20    4.50
   2   3  -8    0.30    2.80
   2   3  -8    2.60    3.00
  -2  -3   8   -0.10    2.20
  -2  -3   8    4.00    6.40
  -2  -3   8    4.10   10.30
  -2  -3   8    4.30    7.00
   1   3  -8   12.60    5.00
   1   3  -8    5.80    2.90
  -1  -3   8    6.70    5.60
  -1  -3   8   -2.40   10.30
  -1  -3   8    6.00    5.30
  -1  -3   8   13.30    4.00
   0   3  -8   -3.20    6.20
   0   3  -8    1.10    2.50
   0   3  -8   -1.80    2.60
   0   3  -8    0.80    4.60
   0  -3   8    0.60    6.40
   0  -3   8    1.20   10.30
   0  -3   8   -0.30    2.00
  -1   3  -8   61.09    5.20
  -1   3  -8   53.59    8.40
  -1   3  -8   60.09    7.40
  -1   3  -8   52.19    8.70
  -1   3  -8   54.89    5.60
   1  -3   8   55.19   14.60
   1  -3   8   62.09    6.20
   1  -3   8   57.19    9.30
  -2   3  -8   -4.00    6.40
  -2   3  -8    0.00    2.20
  -2   3  -8    1.50    3.80
  -2   3  -8    1.70    2.40
   2  -3   8   -8.60    9.70
   2  -3   8    1.00    6.50
   2  -3   8    2.20    2.90
  -3   3  -8   23.50    4.10
  -3   3  -8   23.80    5.40
  -3   3  -8   19.00    3.50
  -3   3  -8   25.40    3.60
   3  -3   8   26.80    4.30
   3  -3   8   22.60   11.10
   3  -3   8   26.40    9.20
  -4   3  -8   47.30    4.80
  -4   3  -8   57.09    4.60
   4  -3   8   72.79    7.30
   4  -3   8   72.29    7.90
   4   2  -8    9.30    2.50
   4   2  -8   11.20    4.40
  -4  -2   8    9.20    2.50
  -4  -2   8   12.40    3.40
   3   2  -8   90.29    7.30
   3   2  -8   89.19    7.60
  -3  -2   8   90.09    8.10
  -3  -2   8   82.19   10.70
  -3  -2   8   83.09    9.30
   2   2  -8   19.40    4.00
  -2  -2   8   21.90    6.30
  -2  -2   8    7.80    4.80
  -2  -2   8    5.90    6.70
  -2  -2   8    0.90    7.80
   1   2  -8  450.25   28.90
   1   2  -8  420.06   24.60
  -1  -2   8  413.26   28.30
  -1  -2   8  460.75   26.40
  -1  -2   8  408.66   29.40
  -1  -2   8  388.76   34.30
   0   2  -8   32.00    4.20
   0   2  -8   36.80    6.10
   0   2  -8   26.70    5.60
   0   2  -8   36.80    7.40
   0  -2   8   24.20   11.80
   0  -2   8   31.20    4.70
   0  -2   8   28.60    7.60
   0  -2   8   46.10   10.40
  -1   2  -8  169.98   11.40
  -1   2  -8  163.78   11.40
  -1   2  -8  166.18   16.40
  -1   2  -8  181.18   12.70
  -1   2  -8  161.48   15.50
   1  -2   8  167.88   16.30
   1  -2   8  214.48   22.70
   1  -2   8  199.38   12.70
   1  -2   8  168.58   21.50
  -2   2  -8  111.79   11.40
  -2   2  -8  108.59    7.90
  -2   2  -8  102.59   10.00
   2  -2   8  116.59   16.60
   2  -2   8  106.69   13.40
   2  -2   8  120.29    9.60
   2  -2   8  100.49    7.70
  -3   2  -8   -1.50    4.70
  -3   2  -8    1.80    3.70
  -3   2  -8    2.50    2.20
   3  -2   8   -6.60    3.80
   3  -2   8    0.50    2.10
   3  -2   8   -7.60    9.50
   3  -2   8    0.90    4.40
   3  -2   8    0.60    2.00
  -4   2  -8   73.29    6.40
  -4   2  -8   65.69    6.30
   4  -2   8   72.39    5.20
   4  -2   8   71.89    6.20
   5  -2   8   28.00    2.90
   4   1  -8    4.90    2.90
  -4  -1   8    4.70    2.00
  -4  -1   8    5.90    3.50
  -4  -1   8    7.40    2.50
   3   1  -8  256.57   14.90
   3   1  -8  247.68   15.10
  -3  -1   8  212.98   19.00
  -3  -1   8  230.28   17.30
  -3  -1   8  264.57   16.30
  -3  -1   8  197.08   14.80
   2   1  -8  183.78   12.60
   2   1  -8  190.38   12.20
   2   1  -8  187.48   15.60
  -2  -1   8  181.58   13.20
  -2  -1   8  177.98   24.30
  -2  -1   8  185.88   16.50
   1   1  -8 1146.59   66.59
   1   1  -8 1203.28   65.99
   1   1  -8 1242.88   69.89
  -1  -1   8 1244.48   75.39
  -1  -1   8 1190.88   66.59
  -1  -1   8 1276.47   70.19
  -1  -1   8 1264.67   67.59
  -1  -1   8 1154.98   66.29
  -1  -1   8 1331.47   77.99
  -1  -1   8 1190.38   70.09
   0   1  -8  495.95   42.50
   0   1  -8  537.75   33.10
   0   1  -8  526.75   31.00
   0   1  -8  527.25   30.10
   0  -1   8  535.45   33.80
   0  -1   8  547.55   39.80
   0  -1   8  521.35   37.90
   0  -1   8  530.55   30.10
   0  -1   8  540.25   31.20
   0  -1   8  556.64   33.10
  -1   1  -8    4.50    2.30
  -1   1  -8    2.40    6.20
  -1   1  -8   10.10    4.10
  -1   1  -8   -0.10    4.60
  -1   1  -8    3.70    3.70
  -1   1  -8    4.20    2.70
   1  -1   8   -3.70    4.10
   1  -1   8    3.50    2.40
   1  -1   8    3.60    1.80
   1  -1   8   -3.80    9.80
   1  -1   8    5.20    6.20
  -2   1  -8   59.09    5.70
  -2   1  -8   64.49    9.50
  -2   1  -8   58.49    6.40
  -2   1  -8   56.99    6.80
   2  -1   8   58.39    5.30
   2  -1   8   74.69   14.30
   2  -1   8   62.39    9.30
   2  -1   8   64.99    7.10
   2  -1   8   72.29   13.70
  -3   1  -8   83.39    7.70
  -3   1  -8   88.09    7.50
  -3   1  -8   98.99    9.50
   3  -1   8   98.79   15.30
   3  -1   8   76.09   13.50
   3  -1   8   91.69   11.30
   3  -1   8   83.69    6.50
   3  -1   8   93.79    7.80
  -4   1  -8   28.90    3.30
  -4   1  -8   38.10    5.00
  -4   1  -8   26.60    4.30
   4  -1   8   33.90    3.70
   4  -1   8   36.50    4.40
   5  -1   8   30.60    3.20
   4   0  -8   11.60    2.60
  -4   0   8    8.80    2.80
  -4   0   8   11.20    3.50
  -4   0   8    6.30    4.20
   3   0  -8  245.88   16.00
   3   0  -8  255.67   16.10
  -3   0   8  239.48   16.40
  -3   0   8  245.68   19.90
  -3   0   8  240.88   16.50
   2   0  -8  438.16   24.60
   2   0  -8  406.36   24.90
   2   0  -8  417.66   28.10
  -2   0   8  400.56   27.60
  -2   0   8  425.36   25.80
  -2   0   8  411.66   25.20
  -2   0   8  404.66   26.30
   1   0  -8   10.10    4.20
   1   0  -8    7.30    3.40
   1   0  -8    5.20    3.20
  -1   0   8   14.70   10.30
  -1   0   8    3.10    2.90
  -1   0   8    5.30    2.70
  -1   0   8   10.30    6.20
  -1   0   8   12.20    5.20
  -1   0   8    6.40    6.20
  -1   0   8    8.40    3.50
   0   0  -8  707.43   41.10
   0   0  -8  656.93   51.69
   0   0  -8  689.83   39.20
   0   0  -8  694.73   39.30
   0   0  -8  638.54   38.80
   0   0   8  718.53   41.60
   0   0   8  708.33   47.40
   0   0   8  707.73   45.60
   0   0   8  732.43   41.00
   0   0   8  678.33   38.30
  -1   0  -8  122.29    9.00
  -1   0  -8  108.59   19.90
  -1   0  -8  105.09   11.90
  -1   0  -8  125.69    9.60
   1   0   8  121.99   12.50
   1   0   8  124.69    8.70
   1   0   8  139.89   12.40
   1   0   8  126.69   17.00
   1   0   8  137.69   17.10
  -2   0  -8   -2.30    8.30
  -2   0  -8    5.00    2.60
  -2   0  -8    7.50    3.20
  -2   0  -8    5.50    2.40
   2   0   8    5.60    5.70
   2   0   8    5.40    8.60
   2   0   8    3.40    3.00
   2   0   8    5.40    2.70
   2   0   8    0.60    6.30
  -3   0  -8   57.09    5.90
  -3   0  -8   60.69    6.90
  -3   0  -8   58.29    7.00
   3   0   8   58.59    5.80
   3   0   8   58.39    6.40
   3   0   8   52.69   11.10
  -4   0  -8    2.90    2.30
  -4   0  -8    0.30    2.10
  -4   0  -8    5.70    4.00
   4   0   8    1.40    2.30
   4   0   8    4.30    2.60
  -5   0  -8   47.60    4.00
  -5   0  -8   44.20    4.80
  -5   0  -8   34.80    3.10
   5   0   8   32.70    3.60
   4  -1  -8   34.70    3.70
   4  -1  -8   55.59    4.90
  -4   1   8   46.00    5.30
  -4   1   8   45.70    4.20
  -4   1   8   49.40    6.10
   3  -1  -8   88.19    8.50
   3  -1  -8   76.19    7.90
  -3   1   8   76.99    9.00
  -3   1   8   80.09    9.90
  -3   1   8   86.19    7.80
   2  -1  -8   30.00    5.60
   2  -1  -8   38.70    7.60
   2  -1  -8   43.00    5.00
  -2   1   8   39.70    5.60
  -2   1   8   35.90    6.00
  -2   1   8   36.70    8.20
   1  -1  -8   28.30    5.00
   1  -1  -8   24.00    8.30
   1  -1  -8   33.20    5.70
   1  -1  -8   26.80    5.10
   1  -1  -8   36.10    4.50
  -1   1   8   34.00    4.30
  -1   1   8   37.20    4.90
  -1   1   8   39.20    7.00
  -1   1   8   31.90    6.20
  -1   1   8   38.10    8.90
  -1   1   8   24.60    4.50
   0  -1  -8   41.00    5.30
   0  -1  -8   44.10    5.60
   0  -1  -8   60.99    7.90
   0  -1  -8   34.90    5.60
   0  -1  -8   31.90   10.50
   0  -1  -8   46.60    9.00
   0  -1  -8   46.50    5.20
   0   1   8   34.40    5.30
   0   1   8   39.90    5.20
   0   1   8   59.79   11.10
   0   1   8   51.19    7.50
  -1  -1  -8  407.76   23.90
  -1  -1  -8  406.86   23.70
  -1  -1  -8  383.16   22.40
  -1  -1  -8  354.36   26.60
  -1  -1  -8  328.37   34.10
  -1  -1  -8  381.76   24.00
   1   1   8  422.06   31.80
   1   1   8  417.76   24.80
   1   1   8  362.96   21.90
   1   1   8  401.06   23.20
   1   1   8  387.76   27.10
  -2  -1  -8    5.40    3.50
  -2  -1  -8    0.00    4.10
  -2  -1  -8    3.40    2.20
  -2  -1  -8    5.00   12.70
  -2  -1  -8    9.10    4.50
   2   1   8   -5.40    7.50
   2   1   8    0.80    1.90
   2   1   8    1.10    2.90
   2   1   8   -6.40    4.60
  -3  -1  -8   68.39    6.30
  -3  -1  -8   56.59    7.70
  -3  -1  -8   68.29    8.20
   3   1   8   76.69   12.90
   3   1   8   66.49    6.30
   3   1   8   63.49    6.10
  -4  -1  -8   99.29    9.20
  -4  -1  -8   86.49    7.80
  -4  -1  -8   79.79    6.90
   4   1   8   73.99    6.50
   4   1   8   89.19    7.10
  -5  -1  -8    5.10    1.90
  -5  -1  -8    8.50    2.90
  -5  -1  -8   11.20    2.20
   5   1   8    6.40    1.20
   5   1   8   10.40    2.10
   4  -2  -8   31.60    4.10
   4  -2  -8   25.40    3.40
  -4   2   8   32.90    4.80
  -4   2   8   19.70    2.30
  -4   2   8   24.00    4.50
   3  -2  -8    2.80    2.30
   3  -2  -8    3.10    2.70
  -3   2   8    2.40    3.70
  -3   2   8    5.70    3.20
  -3   2   8    1.60    3.20
   2  -2  -8   11.50    5.50
   2  -2  -8   12.90    4.50
   2  -2  -8   17.80    3.60
   2  -2  -8   10.80    3.90
  -2   2   8   22.70    4.20
  -2   2   8   15.00    4.00
  -2   2   8   16.40    6.20
   1  -2  -8   -0.80    2.00
   1  -2  -8    8.60    7.00
   1  -2  -8   -2.20    4.60
   1  -2  -8    0.90    3.00
   1  -2  -8    1.30    2.20
   1  -2  -8   -2.30    7.40
  -1   2   8   -3.30    2.20
  -1   2   8    3.20    2.90
  -1   2   8    0.10    3.30
  -1   2   8    1.30    2.30
  -1   2   8   18.70    9.90
  -1   2   8   -0.10    2.90
  -1   2   8    0.30    4.20
   0  -2  -8   10.90    3.20
   0  -2  -8   10.50    8.70
   0  -2  -8   14.10    4.20
   0  -2  -8   12.70    2.90
   0  -2  -8    9.20    4.90
   0  -2  -8   13.50    8.80
   0  -2  -8   13.40    3.50
   0   2   8   12.60    6.10
   0   2   8   11.70    2.70
   0   2   8   18.50    6.80
   0   2   8    6.10    5.80
   0   2   8   13.70    3.70
  -1  -2  -8  322.57   19.30
  -1  -2  -8  323.47   21.30
  -1  -2  -8  319.17   19.80
  -1  -2  -8  303.07   31.00
  -1  -2  -8  361.06   26.10
  -1  -2  -8  323.87   21.00
   1   2   8  314.57   19.60
   1   2   8  319.87   26.60
   1   2   8  335.47   24.20
   1   2   8  316.97   18.80
   1   2   8  337.27   26.40
  -2  -2  -8  326.47   18.10
  -2  -2  -8  237.88   23.00
  -2  -2  -8  258.27   42.50
  -2  -2  -8  273.67   19.90
  -2  -2  -8  317.97   26.70
  -2  -2  -8  247.18   18.10
  -2  -2  -8  291.47   18.60
   2   2   8  253.57   23.20
   2   2   8  278.27   16.40
   2   2   8  240.98   20.30
   2   2   8  274.37   17.20
   2   2   8  291.87   18.10
  -3  -2  -8  155.58   11.80
  -3  -2  -8  155.18   12.60
  -3  -2  -8  138.29   16.50
  -3  -2  -8  157.88   10.70
  -3  -2  -8  147.69   13.00
   3   2   8  114.69   16.90
   3   2   8  155.68    9.90
   3   2   8  141.69   10.40
  -4  -2  -8   90.79    7.70
  -4  -2  -8   94.59    9.00
  -4  -2  -8  100.99    9.40
  -4  -2  -8   96.89    9.60
   4   2   8   75.49    6.20
   4   2   8   85.39    6.70
  -5  -2  -8    0.80    1.80
  -5  -2  -8    0.70    1.60
  -5  -2  -8   -0.20    2.00
   5   2   8    0.60    1.60
   4  -3  -8   41.80    4.50
   4  -3  -8   33.20    4.50
  -4   3   8   41.70    4.50
  -4   3   8   37.60    4.40
   3  -3  -8   14.60    4.10
   3  -3  -8   22.70    4.90
   3  -3  -8   24.00    4.20
  -3   3   8   13.90    5.00
  -3   3   8   19.90    4.10
   2  -3  -8    3.30    2.10
   2  -3  -8    5.40    5.10
   2  -3  -8    3.20    4.80
   2  -3  -8    3.10    2.90
  -2   3   8    4.10    4.10
  -2   3   8    4.40    3.00
  -2   3   8    1.90    2.60
  -2   3   8    4.60    2.40
   1  -3  -8   18.80   10.10
   1  -3  -8   26.90    4.80
   1  -3  -8   17.20    9.90
   1  -3  -8   21.50    4.00
   1  -3  -8   21.30    5.50
   1  -3  -8   17.10    4.90
  -1   3   8   29.60    4.30
  -1   3   8   25.30    4.10
  -1   3   8   25.80    4.80
  -1   3   8   27.90    4.00
  -1   3   8   26.10    7.40
  -1   3   8   19.80    8.50
  -1   3   8   29.30    4.80
   0  -3  -8    0.40    4.30
   0  -3  -8    1.40    2.20
   0  -3  -8   -2.00    4.50
   0  -3  -8    1.40    1.50
   0  -3  -8   10.80    8.40
   0  -3  -8   -1.00    2.50
   0   3   8   -1.20    2.50
   0   3   8    8.90    4.60
   0   3   8    2.40    4.40
   0   3   8    2.50    2.60
   0   3   8    1.80    2.50
   0   3   8    4.60    6.30
   0   3   8    0.30    4.30
  -1  -3  -8    5.50    4.20
  -1  -3  -8    5.70    2.80
  -1  -3  -8   -6.90    5.60
  -1  -3  -8    5.10    3.40
  -1  -3  -8    9.60    3.10
  -1  -3  -8   12.50    9.00
   1   3   8   -1.90    5.50
   1   3   8    5.30    5.80
   1   3   8    1.30    2.20
   1   3   8    5.00    2.50
   1   3   8   11.50    3.50
  -2  -3  -8  529.35   31.60
  -2  -3  -8  533.55   31.30
  -2  -3  -8  511.25   32.20
  -2  -3  -8  531.45   35.90
  -2  -3  -8  522.35   46.90
   2   3   8  541.45   34.70
   2   3   8  512.75   29.50
   2   3   8  488.15   29.80
   2   3   8  564.04   31.10
   2   3   8  648.44   42.20
   2   3   8  526.35   31.20
  -3  -3  -8  199.78   15.80
  -3  -3  -8  200.48   13.20
  -3  -3  -8  209.68   22.10
  -3  -3  -8  221.78   15.30
  -3  -3  -8  236.08   17.90
   3   3   8  209.68   12.80
   3   3   8  208.58   15.00
   3   3   8  200.18   20.50
   3   3   8  202.68   14.10
  -4  -3  -8  156.08   11.70
  -4  -3  -8  145.79   17.70
  -4  -3  -8  147.39   11.80
  -4  -3  -8  152.48   10.30
  -4  -3  -8  105.79   15.10
   4   3   8  154.88    9.60
  -5  -3  -8    6.10    2.40
  -5  -3  -8    3.80    2.90
   5   3   8    5.30    1.70
   5   3   8    5.70    2.70
   4  -4  -8   60.69    5.20
  -4   4   8   49.70    4.80
  -4   4   8   58.59    4.90
   3  -4  -8   60.29    7.60
   3  -4  -8   71.89    7.20
  -3   4   8   83.59    6.90
  -3   4   8   47.10    7.40
  -3   4   8   68.69    7.60
   2  -4  -8    8.60    9.20
   2  -4  -8   -1.10    3.40
   2  -4  -8    1.60    5.30
   2  -4  -8   -1.70    3.40
  -2   4   8    3.60    2.70
  -2   4   8   -5.70    3.50
  -2   4   8    1.00    4.50
   1  -4  -8   50.49    6.90
   1  -4  -8   51.79    8.40
   1  -4  -8   34.10    6.20
   1  -4  -8   59.59   13.10
  -1   4   8   49.50    5.50
  -1   4   8   56.29   11.00
  -1   4   8   53.19    7.30
  -1   4   8   45.00    6.30
  -1   4   8   45.70    5.00
  -1   4   8   62.09   10.60
   0  -4  -8    9.80    8.70
   0  -4  -8   -2.00    7.80
   0  -4  -8   14.70    6.00
   0  -4  -8   10.30    3.80
   0   4   8    5.70    5.40
   0   4   8   11.60    7.40
   0   4   8   10.20    3.00
   0   4   8   14.90    4.50
   0   4   8   11.90    3.10
  -1  -4  -8  263.87   16.00
  -1  -4  -8  201.28   21.10
  -1  -4  -8  214.08   17.50
  -1  -4  -8  216.08   14.40
  -1  -4  -8  164.48   25.60
   1   4   8  226.48   13.30
   1   4   8  217.98   19.20
   1   4   8  231.68   14.20
   1   4   8  220.08   14.90
   1   4   8  191.58   20.60
   1   4   8  215.08   16.40
   1   4   8  251.77   22.70
  -2  -4  -8  348.77   21.30
  -2  -4  -8  370.26   28.70
  -2  -4  -8  355.06   23.60
  -2  -4  -8  312.87   21.30
   2   4   8  348.87   21.40
   2   4   8  335.57   20.60
   2   4   8  348.77   26.30
   2   4   8  362.16   25.70
   2   4   8  284.07   19.30
   2   4   8  331.77   19.20
  -3  -4  -8   45.60   12.40
  -3  -4  -8   39.80    8.40
  -3  -4  -8   51.09    7.40
  -3  -4  -8   44.00    6.60
   3   4   8   43.80    4.30
   3   4   8   33.20    8.40
   3   4   8   38.80    6.30
   3   4   8   35.80    6.10
   3   4   8   40.80   13.50
  -4  -4  -8  252.77   18.30
  -4  -4  -8  225.58   16.60
  -4  -4  -8  243.28   16.50
   4   4   8  269.67   17.50
   4   4   8  256.57   14.40
   4   4   8  233.28   15.90
  -5  -4  -8   60.59    5.70
  -5  -4  -8   62.19    5.60
   5   4   8   70.49    4.40
   5   4   8   56.79    5.40
   3  -5  -8   83.79   10.00
   3  -5  -8  109.19    8.50
   3  -5  -8  108.59   11.20
  -3   5   8   71.09    9.50
  -3   5   8   94.19    7.70
   2  -5  -8   -0.30    5.90
   2  -5  -8    2.40    3.80
   2  -5  -8    2.00    2.60
  -2   5   8    1.80    2.30
  -2   5   8    2.10    3.50
  -2   5   8   -0.40    3.80
   1  -5  -8   40.40    6.90
   1  -5  -8   46.00    5.80
  -1   5   8   44.20    6.00
  -1   5   8   31.90    9.30
  -1   5   8   39.30    5.30
  -1   5   8   42.80    6.30
  -1   5   8   42.90    8.80
  -1   5   8   41.80    6.40
   0  -5  -8  645.94   44.60
   0  -5  -8  716.33   40.10
   0  -5  -8  681.63   41.10
   0   5   8  689.53   43.80
   0   5   8  671.43   39.20
   0   5   8  696.33   39.50
   0   5   8  713.33   38.50
   0   5   8  746.63   50.69
   0   5   8  724.23   40.40
   0   5   8  683.13   38.10
  -1  -5  -8  196.68   20.70
  -1  -5  -8  235.08   15.00
  -1  -5  -8  195.08   13.60
  -1  -5  -8  199.88   17.00
   1   5   8  207.98   16.80
   1   5   8  207.48   14.40
   1   5   8  204.98   13.60
   1   5   8  220.78   12.90
   1   5   8  217.28   15.20
   1   5   8  199.18   19.00
   1   5   8  216.98   23.40
  -2  -5  -8  381.16   22.50
  -2  -5  -8  358.96   24.50
  -2  -5  -8  282.87   28.90
   2   5   8  369.76   27.00
   2   5   8  364.36   20.90
   2   5   8  351.06   22.30
   2   5   8  359.96   26.00
   2   5   8  351.76   21.90
   2   5   8  366.26   20.10
  -3  -5  -8   57.59    6.60
  -3  -5  -8   53.29   13.00
  -3  -5  -8   44.00    9.00
  -3  -5  -8   52.39    7.00
   3   5   8   47.60    4.80
   3   5   8   49.00    6.00
   3   5   8   50.89   10.00
   3   5   8   51.89    4.70
   3   5   8   47.70    6.50
  -4  -5  -8   61.09    6.20
  -4  -5  -8   50.39   10.80
  -4  -5  -8   50.59    8.20
  -4  -5  -8   55.59    6.30
   4   5   8   57.59    4.60
   4   5   8   55.39    7.40
   4   5   8   52.39    6.00
  -5  -5  -8   49.50    6.00
  -5  -5  -8   69.19    5.00
   5   5   8   52.99    3.70
   5   5   8   54.39    4.90
   3  -6  -8   55.69    6.30
   3  -6  -8   54.99    9.40
   3  -6  -8   41.40    8.10
  -3   6   8   48.00    4.30
   2  -6  -8   91.59    7.40
   2  -6  -8   66.89   10.30
   2  -6  -8   53.79   11.30
  -2   6   8   68.89    6.30
  -2   6   8   74.69    7.20
  -2   6   8   79.79    6.80
  -2   6   8   48.60    8.20
  -2   6   8   59.79    7.90
   1  -6  -8    5.00    3.50
   1  -6  -8    4.80    9.10
   1  -6  -8    3.20    4.20
  -1   6   8   13.40    9.60
  -1   6   8    4.50    4.70
  -1   6   8    6.30    4.20
  -1   6   8    4.60    7.00
  -1   6   8    7.20    3.20
  -1   6   8    7.60    3.40
   0  -6  -8  411.46   23.90
   0  -6  -8  392.16   29.50
   0  -6  -8  363.86   24.50
   0   6   8  380.76   23.30
   0   6   8  398.76   22.30
   0   6   8  378.86   23.30
   0   6   8  395.66   29.60
   0   6   8  385.36   24.30
   0   6   8  376.26   21.90
  -1  -6  -8  272.27   16.20
  -1  -6  -8  208.48   20.50
  -1  -6  -8  243.78   18.60
   1   6   8  259.67   14.50
   1   6   8  248.38   16.70
   1   6   8  231.78   22.40
   1   6   8  221.28   16.90
   1   6   8  235.48   16.80
   1   6   8  250.67   26.00
   1   6   8  232.58   15.10
   1   6   8  254.37   14.70
   1   6   8  264.67   16.80
  -2  -6  -8   31.40    5.30
  -2  -6  -8   31.80    7.40
  -2  -6  -8   28.00    3.70
  -2  -6  -8   21.70   10.70
   2   6   8   28.30    3.50
   2   6   8   25.50    4.30
   2   6   8   34.00    6.40
   2   6   8   26.50    4.90
   2   6   8   23.00   10.30
  -3  -6  -8   58.49    5.90
  -3  -6  -8   62.49   12.50
   3   6   8   49.99    6.20
   3   6   8   42.60    9.90
   3   6   8   55.29    4.20
   3   6   8   50.59    6.80
   3   6   8   50.39    5.20
   3   6   8   58.79    5.80
  -4  -6  -8   -1.70    2.00
  -4  -6  -8   -3.90    3.40
  -4  -6  -8    0.30    2.40
  -4  -6  -8   -3.10    4.60
   4   6   8    1.60    2.00
   4   6   8   -0.70    0.70
   4   6   8   -0.90    2.60
   4   6   8   -0.90    2.30
   4   6   8   -2.10    3.30
   3  -7  -8    3.80    2.30
  -3   7   8    2.40    3.30
   2  -7  -8   78.29    6.40
   2  -7  -8   62.69   11.70
   2  -7  -8   64.89    8.20
  -2   7   8   63.49    9.40
  -2   7   8   62.49    6.80
  -2   7   8   63.89    6.20
   1  -7  -8   13.30    9.30
   1  -7  -8   16.00    3.40
   1  -7  -8   11.90    4.90
  -1   7   8    8.70    4.50
  -1   7   8   17.90    2.30
  -1   7   8    5.50    6.50
  -1   7   8   12.20    3.60
  -1   7   8   11.30    4.20
  -1   7   8    7.50    8.40
   0  -7  -8   23.90    9.80
   0  -7  -8   34.50    4.50
   0  -7  -8   23.10    5.20
   0   7   8   15.80    5.80
   0   7   8   15.20    9.70
   0   7   8   31.40    4.40
   0   7   8   29.30    3.20
   0   7   8   30.10    5.50
   0   7   8   15.70    5.30
  -1  -7  -8  195.18   17.80
  -1  -7  -8  216.68   13.80
  -1  -7  -8  203.58   16.00
   1   7   8  198.58   13.60
   1   7   8  205.68   18.20
   1   7   8  200.18   15.10
   1   7   8  215.98   14.80
   1   7   8  185.48   12.90
  -2  -7  -8   42.20    4.90
  -2  -7  -8   51.49   12.60
  -2  -7  -8   32.80   10.00
   2   7   8   40.10    5.30
   2   7   8   27.60    6.10
   2   7   8   39.70    5.90
   2   7   8   31.40    8.30
   2   7   8   30.30    5.30
  -3  -7  -8   30.80    4.20
  -3  -7  -8   25.80    9.10
  -3  -7  -8   34.20    5.80
   3   7   8   30.20    3.80
   3   7   8   35.20    5.00
   3   7   8   31.20    6.10
   3   7   8   29.00    4.10
   3   7   8   28.70    7.00
  -4  -7  -8    4.80    1.50
  -4  -7  -8    6.20    3.30
   4   7   8    4.00    2.50
   4   7   8    4.40    1.20
   4   7   8    5.30    3.40
   4   7   8   -2.50    3.20
   2  -8  -8    3.60    4.00
   2  -8  -8    5.50    1.90
  -2   8   8    9.60    2.50
  -2   8   8    4.90    2.20
  -2   8   8   13.50    3.70
  -2   8   8    8.80    5.60
   1  -8  -8    4.70    4.60
   1  -8  -8    5.20    4.40
   1  -8  -8    2.80    1.80
  -1   8   8    4.70    7.10
  -1   8   8   -1.30    4.30
  -1   8   8    0.50    4.40
  -1   8   8    1.70    5.70
  -1   8   8    3.60    2.90
   0  -8  -8    6.80    5.90
   0  -8  -8    0.90    1.70
   0  -8  -8   -3.50    3.90
   0   8   8   -0.90    4.80
   0   8   8    3.70    4.10
   0   8   8    1.20    4.10
   0   8   8   -0.50    3.50
   0   8   8    0.50    5.80
  -1  -8  -8   19.90    3.30
  -1  -8  -8   28.40   13.80
  -1  -8  -8   21.70    4.70
   1   8   8   22.00    4.30
   1   8   8   15.90    3.80
   1   8   8   22.60    7.10
   1   8   8   19.30    3.50
  -2  -8  -8   78.69    6.60
  -2  -8  -8   88.69    9.60
  -2  -8  -8   98.19   12.50
   2   8   8   83.79    6.40
   2   8   8   85.79    7.00
   2   8   8   73.79    7.30
   2   8   8   69.89   10.40
   2   8   8  127.49   15.00
  -3  -8  -8   34.80    6.20
  -3  -8  -8   36.60    7.90
  -3  -8  -8   32.70    3.90
   3   8   8   28.60    3.10
   3   8   8   25.80    4.10
   3   8   8   38.80    5.40
   3   8   8   35.60    4.10
   3   8   8   19.40    5.90
   1  -9  -8   15.90    3.30
  -1   9   8   15.90    3.50
  -1   9   8   16.40    2.80
  -1   9   8    8.50    4.00
  -1   9   8   14.10    3.20
   0  -9  -8    8.90    4.40
   0  -9  -8    4.40    5.20
   0   9   8   -5.10    6.00
   0   9   8    8.70    3.40
   0   9   8    6.60    3.00
   0   9   8   10.60    2.50
   0   9   8    8.10    2.70
  -1  -9  -8   26.60    4.70
  -1  -9  -8   20.30    5.00
   1   9   8   31.60    3.60
   1   9   8   23.70    4.20
   1   9   8   14.70    5.80
   1   9   8   28.40    3.90
  -2  -9  -8   72.99    6.60
   2   9   8   85.39    5.80
   2   9   8   64.59    8.50
   2   9   8   89.09    6.50
   2   9   8   71.89    6.60
   0   6  -9    1.60    2.70
   0  -6   9    3.60    3.80
   0  -6   9    2.20    1.40
   1   5  -9   66.49    6.70
  -1  -5   9   47.90    9.30
  -1  -5   9   60.89    9.90
  -1  -5   9   73.69    5.50
  -1  -5   9   52.89    8.30
   0   5  -9  164.38   12.20
   0   5  -9  180.48   10.80
   0  -5   9  162.88   10.30
   0  -5   9  131.59   12.00
   0  -5   9  127.89   12.30
  -1   5  -9   -1.60    4.70
  -1   5  -9   -0.60    2.80
  -1   5  -9    1.30    2.60
   1  -5   9    0.80    2.00
   1  -5   9    2.70    4.90
   1  -5   9   -0.70    3.20
  -2   5  -9   33.00    5.20
   2  -5   9   41.30    6.20
   2  -5   9   51.49    4.10
   2   4  -9   78.99    4.90
   2   4  -9   78.49    7.80
  -2  -4   9   72.59    6.10
  -2  -4   9   54.89    7.50
  -2  -4   9   49.60    8.30
   1   4  -9    3.80    3.30
   1   4  -9    1.00    2.00
  -1  -4   9    2.30    2.70
  -1  -4   9    6.00    9.20
  -1  -4   9    5.10    4.30
  -1  -4   9    1.30    6.10
   0   4  -9  148.29    9.40
   0   4  -9  155.48   12.10
   0  -4   9  140.39   13.90
   0  -4   9  158.38   10.80
   0  -4   9   93.39   19.50
   0  -4   9  203.58   22.80
  -1   4  -9   55.99    4.90
  -1   4  -9   44.90    7.30
   1  -4   9   62.29    5.40
   1  -4   9   50.39    7.20
   1  -4   9   61.09   18.60
  -2   4  -9   -0.20    1.80
  -2   4  -9    2.00    3.80
  -2   4  -9   -2.00    3.00
   2  -4   9   -6.80    4.70
   2  -4   9   -8.30    6.50
   2  -4   9    0.40    2.30
   3  -4   9    2.40    3.80
   3  -4   9    4.30    1.70
   3   3  -9    3.00    1.30
   3   3  -9    3.60    1.60
   3   3  -9    2.40    4.40
  -3  -3   9    7.20    2.30
   2   3  -9   96.19    7.10
   2   3  -9   96.59    8.20
  -2  -3   9   99.19    7.90
  -2  -3   9   97.49   11.80
  -2  -3   9   77.69   13.70
  -2  -3   9   82.89    9.40
   1   3  -9   29.30    4.00
   1   3  -9   38.50    5.40
  -1  -3   9   39.80    8.80
  -1  -3   9   39.80    5.80
  -1  -3   9   39.80   10.70
  -1  -3   9   35.70    7.00
   0   3  -9   94.09    7.00
   0  -3   9  101.09    8.40
   0  -3   9   96.39   10.60
   0  -3   9   91.99   10.60
   0  -3   9   80.99   16.40
  -1   3  -9   12.00    3.60
  -1   3  -9    6.40    4.80
  -1   3  -9    8.40    2.30
   1  -3   9    9.70    2.80
   1  -3   9    8.10    6.70
   1  -3   9    3.80    9.20
  -2   3  -9   22.50    3.90
  -2   3  -9   14.80    2.60
  -2   3  -9   18.80    5.40
   2  -3   9   16.10    5.20
   2  -3   9   12.40    9.60
   2  -3   9   15.00    3.10
  -3   3  -9   -1.10    2.20
  -3   3  -9    0.60    2.10
   3  -3   9   -2.50    4.60
   3  -3   9    1.90    1.90
  -4   3  -9   27.40    2.50
   4  -3   9   27.30    3.10
   3   2  -9   60.99    4.60
   3   2  -9   61.79    5.10
  -3  -2   9   49.60    6.90
  -3  -2   9   68.39    6.60
   2   2  -9   36.60    4.90
   2   2  -9   37.20    4.60
  -2  -2   9   44.90    5.40
  -2  -2   9   38.70    6.40
  -2  -2   9   38.20    7.30
  -2  -2   9   23.20   10.20
   1   2  -9   69.39    5.90
  -1  -2   9   42.70   13.20
  -1  -2   9   69.99    7.60
  -1  -2   9   70.29    9.60
  -1  -2   9   55.39    8.50
   0   2  -9  270.97   16.80
   0   2  -9  306.27   20.40
   0  -2   9  253.47   20.50
   0  -2   9  261.47   20.00
   0  -2   9  248.78   26.30
   0  -2   9  306.47   18.20
  -1   2  -9  101.19    8.60
  -1   2  -9   86.39    7.50
  -1   2  -9   74.29   10.20
   1  -2   9   85.49   12.10
   1  -2   9   86.89   15.30
   1  -2   9   97.69    7.80
   1  -2   9   86.59    6.70
  -2   2  -9   19.30    4.10
  -2   2  -9    9.70    4.90
  -2   2  -9   13.00    2.70
   2  -2   9   12.90    3.20
   2  -2   9   11.90    2.20
   2  -2   9   19.00    9.30
   2  -2   9    8.70    6.60
  -3   2  -9   86.99    7.00
  -3   2  -9   88.59    7.80
   3  -2   9   88.09    6.60
   3  -2   9   76.09    9.20
   3  -2   9   96.29    7.30
  -4   2  -9   14.70    2.60
   4  -2   9   12.70    2.90
   4  -2   9   14.00    2.10
   3   1  -9   30.30    4.00
  -3  -1   9   29.10    4.30
  -3  -1   9   36.00    5.50
  -3  -1   9   33.60    5.90
   2   1  -9   25.20    2.20
   2   1  -9   39.70    4.60
   2   1  -9   36.80    5.30
  -2  -1   9   37.80    7.90
  -2  -1   9   33.40    5.10
  -2  -1   9   42.20    5.10
  -2  -1   9   32.20    6.60
   1   1  -9   99.79   10.70
   1   1  -9   90.69    9.50
   1   1  -9  111.09    8.50
  -1  -1   9  115.39   16.60
  -1  -1   9  103.29    9.40
  -1  -1   9  101.69    8.50
  -1  -1   9  112.99   13.60
  -1  -1   9   99.79   12.20
  -1  -1   9  103.39    8.10
   0   1  -9   52.19    5.20
   0   1  -9   49.60    5.00
   0  -1   9   50.99    6.50
   0  -1   9   45.30    5.70
   0  -1   9   60.69    9.40
  -1   1  -9  280.27   18.70
  -1   1  -9  256.27   16.60
  -1   1  -9  258.17   16.10
   1  -1   9  280.47   19.70
   1  -1   9  284.47   17.20
   1  -1   9  253.97   16.00
  -2   1  -9   28.70    5.70
  -2   1  -9   27.60    4.20
  -2   1  -9   40.60    6.90
   2  -1   9   37.10    4.50
   2  -1   9   43.60    8.10
   2  -1   9   40.00    5.00
  -3   1  -9   68.09    5.70
  -3   1  -9   51.19    5.10
  -3   1  -9   68.89    6.80
   3  -1   9   74.19    6.30
   3  -1   9   67.69    5.60
  -4   1  -9   71.39    5.50
  -4   1  -9   49.10    5.90
   4  -1   9   59.99    4.40
   4  -1   9   42.50    5.80
   3   0  -9   42.50    4.60
   3   0  -9   38.70    3.70
  -3   0   9   50.89    6.30
  -3   0   9   53.39    6.30
  -3   0   9   41.40    6.60
   2   0  -9   48.80    5.70
   2   0  -9   51.59    6.00
  -2   0   9   54.99    6.20
  -2   0   9   48.60    8.80
  -2   0   9   57.09    6.70
   1   0  -9   70.79    8.10
   1   0  -9   63.19    6.20
   1   0  -9   65.49    6.00
  -1   0   9   58.19    7.40
  -1   0   9   64.89    6.30
  -1   0   9   83.99    9.80
  -1   0   9   76.89    9.70
  -1   0   9   68.89    6.50
   0   0  -9   65.49    7.00
   0   0  -9   66.59    6.60
   0   0  -9   69.59    6.80
   0   0  -9   52.79    7.50
   0   0   9   77.79   10.20
   0   0   9   64.39    7.10
   0   0   9   66.59    5.90
   0   0   9   71.99   10.10
  -1   0  -9  105.39   10.10
  -1   0  -9  120.39    9.30
  -1   0  -9  116.89    8.80
   1   0   9  122.29    9.00
   1   0   9   86.49    9.90
   1   0   9  110.19   11.90
   1   0   9  114.89    8.10
  -2   0  -9   70.49    8.80
  -2   0  -9   81.09    6.50
  -2   0  -9   78.59    6.90
   2   0   9   60.29   13.00
   2   0   9   77.49    7.00
   2   0   9   81.39    6.50
  -3   0  -9   -1.20    2.60
  -3   0  -9    1.30    2.70
  -3   0  -9    5.30    3.00
   3   0   9   -4.00    2.70
   3   0   9    1.50    1.80
  -4   0  -9  199.38   12.70
  -4   0  -9  171.48   11.60
  -4   0  -9  185.08   11.50
   4   0   9  163.98   11.30
   4   0   9  179.98   11.50
   3  -1  -9  100.39    7.70
   3  -1  -9   84.59    7.20
  -3   1   9   87.19    7.40
  -3   1   9   92.49    8.40
  -3   1   9   85.79    8.70
   2  -1  -9    7.30    3.30
   2  -1  -9    7.80    3.70
  -2   1   9    5.40    4.10
  -2   1   9    5.60    3.00
  -2   1   9   10.10    4.30
   1  -1  -9   46.80    5.30
   1  -1  -9   55.19    6.70
   1  -1  -9   58.19    7.40
  -1   1   9   53.89    7.00
  -1   1   9   62.69    7.10
  -1   1   9   47.90    7.90
  -1   1   9   54.59    6.80
   0  -1  -9  174.78   11.50
   0  -1  -9  158.18   11.70
   0  -1  -9  169.28   11.70
   0   1   9  160.38   11.90
   0   1   9  166.38   11.30
  -1  -1  -9   16.50    3.70
  -1  -1  -9   24.20    4.90
  -1  -1  -9   19.00    3.90
   1   1   9   18.20    3.50
   1   1   9   19.70    3.80
   1   1   9   26.80    9.00
  -2  -1  -9  174.48   12.60
  -2  -1  -9  155.98   11.00
   2   1   9  138.79   16.80
   2   1   9  178.88   12.10
   2   1   9  174.18   10.90
  -3  -1  -9  156.88   11.30
  -3  -1  -9  171.28   12.70
  -3  -1  -9  162.58   11.10
   3   1   9  158.58   11.10
   3   1   9  159.38   10.20
   3   1   9  148.89   10.50
  -4  -1  -9   53.39    5.90
  -4  -1  -9   55.19    5.60
  -4  -1  -9   66.09    6.00
   4   1   9   59.29    4.80
   4   1   9   49.70    4.80
   4   1   9   51.49    4.90
  -5  -1  -9   90.29    5.30
   5   1   9   73.99    5.30
   3  -2  -9   39.10    5.40
  -3   2   9   46.10    6.50
  -3   2   9   40.70    5.10
  -3   2   9   24.30    3.50
   2  -2  -9  175.88   11.70
   2  -2  -9  162.58   11.80
  -2   2   9  147.59   13.40
  -2   2   9  157.28   11.50
  -2   2   9  157.18   11.10
   1  -2  -9    7.80    2.90
   1  -2  -9   10.00    4.00
   1  -2  -9    5.30    4.80
   1  -2  -9    7.60    3.30
  -1   2   9    4.30    3.80
  -1   2   9    3.70    3.30
  -1   2   9    5.30    3.70
   0  -2  -9  138.69   10.00
   0  -2  -9  140.99   13.10
   0  -2  -9  140.19   16.00
   0  -2  -9  138.99   11.00
   0  -2  -9  149.69   10.50
   0   2   9  118.39   15.10
   0   2   9  141.89   10.00
   0   2   9  132.39   10.40
  -1  -2  -9  444.46   27.50
  -1  -2  -9  454.65   26.60
  -1  -2  -9  434.56   31.50
  -1  -2  -9  438.86   25.40
  -1  -2  -9  452.65   26.40
   1   2   9  459.65   25.00
   1   2   9  420.86   29.60
   1   2   9  437.66   25.70
   1   2   9  408.46   31.40
  -2  -2  -9    1.80    7.50
  -2  -2  -9    4.00    2.70
  -2  -2  -9    3.40    3.00
  -2  -2  -9   -5.00    4.20
  -2  -2  -9    3.00    1.90
   2   2   9   -0.40    1.70
   2   2   9    5.80    7.40
   2   2   9    2.80    1.90
  -3  -2  -9  205.98   14.30
  -3  -2  -9  210.18   13.50
  -3  -2  -9  221.58   15.30
  -3  -2  -9  220.78   14.50
   3   2   9  198.18   13.00
   3   2   9  198.38   13.30
   3   2   9  221.88   12.90
  -4  -2  -9    1.50    2.10
  -4  -2  -9   -2.30    2.60
   4   2   9    1.30    2.20
   4   2   9    0.50    1.10
  -5  -2  -9   16.10    2.30
   5   2   9   17.70    2.80
   3  -3  -9   23.90    3.90
   3  -3  -9   21.70    3.80
  -3   3   9   21.00    3.60
   2  -3  -9  122.29    8.90
   2  -3  -9   84.99   11.10
   2  -3  -9  113.69    9.70
  -2   3   9  113.19    8.70
  -2   3   9   98.29    7.50
   1  -3  -9   54.89    6.80
   1  -3  -9   44.50    7.60
   1  -3  -9   54.39   10.70
   1  -3  -9   45.10    5.70
  -1   3   9   44.30    5.80
  -1   3   9   54.29    5.70
  -1   3   9   48.90    5.40
  -1   3   9   60.69    5.30
  -1   3   9   50.69    6.30
   0  -3  -9   58.19    5.60
   0  -3  -9   46.60    7.50
   0  -3  -9   53.89    5.70
   0  -3  -9   49.90   12.40
   0  -3  -9   46.90    5.60
   0   3   9   50.29    5.00
   0   3   9   43.90    5.40
   0   3   9   46.30    9.30
  -1  -3  -9  263.07   16.60
  -1  -3  -9  273.47   17.40
  -1  -3  -9  279.27   23.50
  -1  -3  -9  287.27   19.50
  -1  -3  -9  274.77   16.20
   1   3   9  238.18   15.90
   1   3   9  246.88   21.60
   1   3   9  266.07   15.80
   1   3   9  255.67   21.30
  -2  -3  -9   -0.30    4.30
  -2  -3  -9    4.40    3.50
  -2  -3  -9    7.00    5.80
  -2  -3  -9   -3.40    9.10
  -2  -3  -9    5.00    2.40
   2   3   9    2.10    2.10
   2   3   9    2.20    6.10
   2   3   9    3.00    1.70
   2   3   9    0.70    1.80
  -3  -3  -9   27.70    3.80
  -3  -3  -9   30.70    5.60
  -3  -3  -9   43.10    6.60
  -3  -3  -9   18.00    4.60
  -3  -3  -9   28.00    9.00
   3   3   9   31.30    3.80
   3   3   9   34.80    5.30
  -4  -3  -9    2.70    2.10
  -4  -3  -9   -2.90    3.40
  -4  -3  -9    2.00    1.50
   4   3   9    5.20    4.00
   4   3   9    3.10    2.30
   5   3   9    5.40    1.70
   5   3   9    1.10    1.50
   3  -4  -9   22.90    5.10
  -3   4   9   16.10    3.70
  -3   4   9    8.60    4.50
   2  -4  -9    6.90    3.70
   2  -4  -9   20.50    9.70
   2  -4  -9    4.20    2.70
   2  -4  -9    7.00    4.10
  -2   4   9    5.50    2.90
  -2   4   9    0.50    2.80
   1  -4  -9   59.49   13.20
   1  -4  -9   63.59    7.80
   1  -4  -9   48.50    8.30
  -1   4   9   64.09    5.80
  -1   4   9   64.49    6.50
   0  -4  -9   49.80    6.50
   0  -4  -9   43.10    7.60
   0   4   9   51.89   10.00
   0   4   9   53.29    5.50
   0   4   9   49.40    4.90
   0   4   9   48.20    5.10
   0   4   9   45.10    6.00
  -1  -4  -9  308.47   18.80
  -1  -4  -9  289.27   19.60
  -1  -4  -9  269.97   18.40
  -1  -4  -9  279.17   26.00
   1   4   9  300.17   22.40
   1   4   9  283.47   16.80
   1   4   9  281.97   17.60
   1   4   9  286.87   21.10
  -2  -4  -9  103.89    9.20
  -2  -4  -9   80.39   14.40
  -2  -4  -9   81.59   12.00
  -2  -4  -9   85.79    8.60
   2   4   9   98.79    6.80
   2   4   9  124.39   14.00
   2   4   9  103.49   11.20
   2   4   9   84.89   15.50
  -3  -4  -9   88.29   11.30
  -3  -4  -9   91.29    8.00
  -3  -4  -9   86.39    7.80
  -3  -4  -9  102.29   14.10
   3   4   9   84.49    7.40
   3   4   9   87.89    6.30
   3   4   9   90.49    9.80
  -4  -4  -9   22.30    3.80
  -4  -4  -9   23.20    5.40
   4   4   9   25.70    3.60
   4   4   9   27.50    3.60
   3  -5  -9   12.80    2.90
  -3   5   9    8.20    3.30
  -3   5   9    9.50    2.90
   2  -5  -9   -2.80    4.70
   2  -5  -9    2.20    3.80
   2  -5  -9    3.10    2.40
  -2   5   9    3.10    3.40
  -2   5   9    5.00    6.00
  -2   5   9   11.40    2.50
  -2   5   9    0.20    2.20
   1  -5  -9   26.60   10.50
   1  -5  -9   24.30    6.80
   1  -5  -9   18.40    4.40
  -1   5   9   14.00    4.00
  -1   5   9   26.70    3.80
  -1   5   9   22.40    4.50
  -1   5   9   25.00   10.80
   0  -5  -9   14.00    4.90
   0  -5  -9   10.90    8.20
   0   5   9    8.10   12.80
   0   5   9   30.50    4.70
   0   5   9   18.00    4.60
   0   5   9   27.50    3.80
  -1  -5  -9  387.96   29.70
  -1  -5  -9  398.76   24.60
  -1  -5  -9  407.96   25.80
   1   5   9  383.86   22.80
   1   5   9  381.06   23.90
   1   5   9  494.15   38.50
   1   5   9  375.36   22.80
  -2  -5  -9   78.49   13.90
  -2  -5  -9   77.79    7.00
  -2  -5  -9   79.39   11.30
  -2  -5  -9   67.29    6.90
   2   5   9   66.09    8.40
   2   5   9   81.99    7.90
   2   5   9   69.19    5.90
   2   5   9   71.59    5.80
   2   5   9   64.69   10.00
  -3  -5  -9   43.80    6.70
  -3  -5  -9   41.80    8.80
  -3  -5  -9   42.60    5.60
  -3  -5  -9   54.39    5.50
   3   5   9   31.90    7.60
   3   5   9   49.99    4.40
   3   5   9   46.80    7.00
   3   5   9   42.00    6.00
  -4  -5  -9  132.09    9.50
  -4  -5  -9  155.98    9.90
   4   5   9  131.39    8.70
   4   5   9  131.59    9.20
   2  -6  -9    7.10    2.50
   2  -6  -9    6.40    5.00
   2  -6  -9   12.00    7.90
  -2   6   9    8.30    2.60
  -2   6   9    3.40    3.90
  -2   6   9    4.50    2.60
  -2   6   9    5.30    2.30
   1  -6  -9   44.30    9.70
   1  -6  -9   55.79    8.00
   1  -6  -9   62.89    6.10
  -1   6   9   51.79    9.70
  -1   6   9   68.19    5.90
  -1   6   9   48.10    6.30
  -1   6   9   36.10    8.00
  -1   6   9   48.80    5.50
  -1   6   9   55.89    5.60
   0  -6  -9   -1.50    2.60
   0  -6  -9   -3.40    4.80
   0  -6  -9   -8.00    8.20
   0   6   9    1.50    3.80
   0   6   9    3.40    3.90
   0   6   9    0.50    1.90
   0   6   9   -1.10    2.00
   0   6   9    1.20    6.50
  -1  -6  -9    4.10    5.20
  -1  -6  -9    1.40    5.40
  -1  -6  -9   -0.20    2.70
   1   6   9   -0.70    2.90
   1   6   9    1.00    4.80
   1   6   9    2.00    6.20
   1   6   9   -0.20    4.20
   1   6   9    1.00    2.30
   1   6   9    1.70    2.10
   1   6   9    0.20    3.90
  -2  -6  -9  329.57   22.30
  -2  -6  -9  298.37   24.40
  -2  -6  -9  295.37   18.20
   2   6   9  284.27   18.40
   2   6   9  275.67   18.50
   2   6   9  251.77   22.40
   2   6   9  279.27   17.20
   2   6   9  294.17   17.80
   2   6   9  303.37   16.40
  -3  -6  -9   30.80    5.70
  -3  -6  -9   22.70    3.30
  -3  -6  -9   33.80    6.80
  -3  -6  -9   31.40    8.90
   3   6   9   33.40    4.90
   3   6   9   29.50    4.90
   3   6   9   25.60    7.10
   3   6   9   24.30    4.80
  -4  -6  -9   29.10    4.40
   4   6   9   29.40    2.80
   4   6   9   20.60    3.90
   2  -7  -9    6.50    2.00
   2  -7  -9    2.40    2.80
  -2   7   9    4.60    1.90
  -2   7   9    4.20    5.00
  -2   7   9    7.20    1.50
   1  -7  -9   31.70    7.10
   1  -7  -9   30.10    3.90
   1  -7  -9   22.20    5.90
  -1   7   9   28.30    4.00
  -1   7   9   26.40    4.50
  -1   7   9   16.10    4.90
  -1   7   9   30.40    4.10
   0  -7  -9   35.90    6.10
   0  -7  -9   22.60    5.80
   0  -7  -9   17.40   10.80
   0   7   9   18.30    6.50
   0   7   9   13.80    6.00
   0   7   9   12.70    8.20
   0   7   9   29.50    2.00
   0   7   9   21.70    4.10
   0   7   9   19.60    4.70
  -1  -7  -9   14.00    3.90
  -1  -7  -9   18.70    5.80
  -1  -7  -9   24.90    8.90
   1   7   9   22.30    4.00
   1   7   9   17.30    7.00
   1   7   9   16.60    3.70
   1   7   9   23.90    4.60
   1   7   9   15.50    3.20
  -2  -7  -9    4.70    7.70
  -2  -7  -9   11.90    2.90
  -2  -7  -9    8.10    4.00
   2   7   9   11.10    4.20
   2   7   9   10.30    4.10
   2   7   9    6.80    2.90
   2   7   9   10.30    8.10
  -3  -7  -9   76.29    7.70
  -3  -7  -9   70.39    5.40
  -3  -7  -9   71.49   12.30
   3   7   9   90.39    5.90
   3   7   9   75.39    6.50
   3   7   9   66.89    9.00
   3   7   9   57.29    4.80
   3   7   9   76.39    7.00
   1  -8  -9    2.50    2.70
   1  -8  -9    1.60    1.10
  -1   8   9    0.50    2.00
  -1   8   9    0.50    1.40
  -1   8   9    2.10    2.60
  -1   8   9    2.90    3.50
   0  -8  -9   49.50    8.50
   0  -8  -9   44.00    4.40
   0  -8  -9   67.89    8.60
   0   8   9   46.80    5.60
   0   8   9   47.00    7.80
   0   8   9   44.10    4.90
  -1  -8  -9    1.80    1.50
  -1  -8  -9    2.00    3.00
  -1  -8  -9   -2.20    6.10
   1   8   9    1.40    2.90
   1   8   9   -0.40    1.90
   1   8   9    0.90    5.30
   1   8   9   -0.10    2.30
  -2  -8  -9    3.60    4.10
  -2  -8  -9    0.60    1.10
  -2  -8  -9   -3.50    4.20
   2   8   9    2.40    2.30
   2   8   9    2.40    4.50
   2   8   9    0.80    2.30
   2   8   9    1.10    2.50
   1   4 -10  114.49    6.40
   1   4 -10  121.99    8.40
  -1  -4  10  107.49    7.70
  -1  -4  10  108.59    9.50
   0   4 -10   62.29    4.10
   0   4 -10   68.59    7.20
   0  -4  10   42.50    6.70
   0  -4  10   65.89    5.40
   0  -4  10   64.19    7.80
  -1   4 -10   63.99    6.50
  -1   4 -10   71.39    4.60
   1  -4  10   67.19    5.20
   1  -4  10   57.49    7.90
  -2   4 -10   43.40    3.60
  -2   4 -10   36.40    3.30
   2  -4  10   38.30    3.60
   2   3 -10   39.50    4.40
   2   3 -10   47.20    3.50
  -2  -3  10   50.69    4.40
   1   3 -10   19.50    3.30
   1   3 -10   26.70    4.10
  -1  -3  10   24.00    5.10
  -1  -3  10   23.80    3.70
  -1  -3  10   36.30    7.30
   0   3 -10  219.88   12.90
   0  -3  10  210.58   15.80
   0  -3  10  170.28   18.00
   0  -3  10  219.58   16.30
   0  -3  10  258.97   14.40
  -1   3 -10   -1.00    2.20
   1  -3  10   -0.40    1.70
   1  -3  10   -0.70    3.90
   1  -3  10    2.40    9.50
   1  -3  10   -8.00    4.80
  -2   3 -10   31.40    3.20
   2  -3  10   34.80    4.30
   2  -3  10   31.40    4.60
  -3   3 -10    4.10    1.70
   3  -3  10    4.60    1.70
   2   2 -10   36.40    3.60
   2   2 -10   31.10    4.50
  -2  -2  10   26.30    4.90
  -2  -2  10   37.30    4.80
   0   2 -10   33.00    4.00
   0  -2  10   43.70    6.50
   0  -2  10   38.30    7.20
   0  -2  10   34.80    5.30
   0  -2  10   47.90   10.00
  -1   2 -10   64.39    7.20
  -1   2 -10   72.29    6.30
   1  -2  10   79.69    6.90
   1  -2  10   61.59    7.60
   1  -2  10   62.19    9.70
  -2   2 -10   40.20    4.10
  -2   2 -10   35.60    5.30
   2  -2  10   44.10    4.50
   2  -2  10   43.40    6.70
   2  -2  10   38.10    3.70
  -3   2 -10    6.10    1.80
  -3   2 -10    8.30    3.00
   3  -2  10    8.10    2.60
   2   1 -10   13.80    2.60
   2   1 -10   11.20    3.70
  -2  -1  10   15.50    3.30
  -2  -1  10    5.20    3.90
  -2  -1  10   17.40    2.90
   1   1 -10   29.10    4.50
  -1  -1  10   26.20   11.70
  -1  -1  10   40.00    5.00
   0   1 -10   14.40    3.00
   0  -1  10   14.20    3.10
   0  -1  10   12.80    3.90
   0  -1  10   10.70    4.40
   0  -1  10   17.70    5.70
   0  -1  10   15.20    2.80
  -1   1 -10   47.20    4.80
  -1   1 -10   42.90    4.00
  -1   1 -10   44.60    6.10
   1  -1  10   48.80    5.90
   1  -1  10   43.70    6.80
   1  -1  10   43.70    4.40
  -2   1 -10    4.50    3.60
  -2   1 -10    2.10    1.90
   2  -1  10    1.20    2.00
   2  -1  10    2.30    1.60
  -3   1 -10   30.30    3.50
  -3   1 -10   34.10    4.80
   3  -1  10   30.20    3.70
   3  -1  10   28.90    3.70
  -4   1 -10    2.50    1.40
   4  -1  10    0.30    1.10
   4  -1  10    1.50    1.10
   3   0 -10   28.20    3.40
  -3   0  10   24.80    3.20
  -3   0  10   20.60    3.10
   2   0 -10   17.60    3.40
   2   0 -10   17.30    3.00
   2   0 -10   14.50    2.10
  -2   0  10   15.50    4.50
  -2   0  10   17.70    3.30
  -2   0  10   23.60    3.80
   1   0 -10    5.10    2.50
   1   0 -10    4.20    2.60
  -1   0  10    7.20    2.70
  -1   0  10   11.00    3.20
  -1   0  10    7.70    3.60
   0   0 -10  112.69    8.30
   0   0 -10  102.19    8.60
   0   0  10   95.49    9.70
   0   0  10  121.49    9.30
   0   0  10   96.99    8.80
   0   0  10  113.29    8.50
  -1   0 -10   37.30    4.60
  -1   0 -10   48.40    6.40
  -1   0 -10   33.50    4.80
   1   0  10   39.70    4.30
   1   0  10   35.50    4.70
  -2   0 -10   11.80    2.90
  -2   0 -10   18.30    3.10
  -2   0 -10   23.00    4.20
   2   0  10   12.40    3.40
   2   0  10   18.80    2.80
  -3   0 -10  116.29    8.80
  -3   0 -10  109.49    7.80
   3   0  10  119.79    7.90
   3   0  10  107.49    7.90
  -4   0 -10   41.70    3.80
  -4   0 -10   36.10    4.00
   4   0  10   48.80    4.10
   3  -1 -10    0.10    1.80
  -3   1  10    2.80    2.90
  -3   1  10    0.90    1.10
   2  -1 -10   -0.20    2.30
   2  -1 -10    0.20    1.90
  -2   1  10    2.80    3.10
  -2   1  10   -1.00    1.90
  -2   1  10    2.80    2.60
   1  -1 -10   50.29    5.50
   1  -1 -10   56.19    5.60
  -1   1  10   53.59    5.50
  -1   1  10   52.79    6.20
  -1   1  10   51.39    6.00
   0  -1 -10    3.10    2.20
   0  -1 -10    2.30    3.00
   0  -1 -10    1.30    1.90
   0   1  10    5.20    3.10
   0   1  10    0.70    2.10
   0   1  10    2.20    3.20
  -1  -1 -10  217.18   14.80
  -1  -1 -10  222.08   15.30
  -1  -1 -10  217.18   14.30
   1   1  10  236.28   14.60
   1   1  10  225.68   13.80
  -2  -1 -10  128.39    9.50
  -2  -1 -10  128.49    9.90
  -2  -1 -10  143.59   10.20
   2   1  10  130.39    8.70
   2   1  10  122.59    9.50
  -3  -1 -10   72.39    5.90
  -3  -1 -10  103.89   11.90
  -3  -1 -10   68.39    6.30
   3   1  10   76.39    6.10
   3   1  10   72.99    5.80
  -4  -1 -10  151.38    9.10
   4   1  10  137.79    8.40
   3  -2 -10   13.80    2.40
   3  -2 -10   11.90    2.20
  -3   2  10    7.80    2.50
  -3   2  10   12.50    3.40
   2  -2 -10    9.60    2.70
   2  -2 -10    7.50    2.80
  -2   2  10    7.30    3.20
  -2   2  10   11.50    2.50
   1  -2 -10    5.90    2.40
   1  -2 -10    6.50    3.00
  -1   2  10    4.20    2.50
  -1   2  10    5.90    2.80
  -1   2  10    4.80    3.20
   0  -2 -10  191.38   12.50
   0  -2 -10  181.68   12.20
   0  -2 -10  189.48   13.50
   0   2  10  188.58   12.00
   0   2  10  181.28   12.70
   0   2  10  188.18   12.30
  -1  -2 -10  137.59   10.10
  -1  -2 -10  153.58   10.80
  -1  -2 -10  128.89   10.20
   1   2  10  150.38   10.10
   1   2  10  145.69   10.00
  -2  -2 -10  424.16   23.60
  -2  -2 -10  429.76   24.90
  -2  -2 -10  416.56   24.60
   2   2  10  357.56   23.50
   2   2  10  435.36   23.30
  -3  -2 -10    3.10    1.80
  -3  -2 -10    3.50    2.90
   3   2  10    4.30    2.40
   3   2  10    2.20    1.70
  -4  -2 -10   75.09    4.70
  -4  -2 -10   53.29    5.00
  -4  -2 -10   54.49    6.10
   3  -3 -10   29.80    3.20
  -3   3  10   15.70    4.60
  -3   3  10   32.20    4.00
   2  -3 -10   10.30    2.40
   2  -3 -10    4.70    2.80
  -2   3  10    2.80    2.60
   1  -3 -10   16.40    4.50
   1  -3 -10    1.50    3.30
   1  -3 -10    6.80    2.30
  -1   3  10    3.20    1.50
  -1   3  10    2.80    2.30
  -1   3  10    2.10    2.50
   0  -3 -10  240.98   17.50
   0  -3 -10  276.17   20.50
   0  -3 -10  235.08   15.40
   0  -3 -10  250.67   16.50
   0   3  10  251.47   15.40
   0   3  10  242.48   15.60
   0   3  10  259.67   15.90
  -1  -3 -10   26.30    4.00
  -1  -3 -10   32.20    8.70
  -1  -3 -10   28.80    4.60
  -1  -3 -10   21.70    3.80
  -1  -3 -10   22.00    5.80
   1   3  10   27.80    3.90
   1   3  10   18.10    3.10
  -2  -3 -10  255.67   16.40
  -2  -3 -10  258.17   15.30
  -2  -3 -10  251.67   17.90
  -2  -3 -10  272.57   16.50
  -2  -3 -10  196.98   20.20
   2   3  10  266.67   15.10
  -3  -3 -10    0.50    1.50
  -3  -3 -10   -0.30    2.30
  -3  -3 -10    0.80    3.00
   3   3  10    1.70    2.20
   3   3  10    0.00    2.10
  -4  -3 -10   11.40    3.00
  -4  -3 -10    8.70    2.70
  -4  -3 -10   10.70    2.80
   4   3  10   12.70    1.80
   4   3  10   13.60    2.10
   2  -4 -10    7.70    3.10
  -2   4  10    7.10    2.70
   1  -4 -10    2.60    2.40
   1  -4 -10   28.20    8.10
   1  -4 -10    1.40    4.30
  -1   4  10   -0.90    2.40
  -1   4  10    1.90    3.00
   0  -4 -10   56.99   10.00
   0  -4 -10   44.00    5.50
   0  -4 -10   35.70    8.50
   0   4  10   54.59    6.10
   0   4  10   44.20    5.20
   0   4  10   52.99    6.40
  -1  -4 -10   33.80    5.40
  -1  -4 -10   22.80    9.80
  -1  -4 -10   35.30    6.80
   1   4  10   29.50    3.90
   1   4  10   28.90    7.00
  -2  -4 -10   10.00    7.80
  -2  -4 -10    3.00    4.60
  -2  -4 -10    1.80    2.20
  -2  -4 -10    3.40    2.20
   2   4  10    2.60    1.70
   2   4  10    3.20    4.00
  -3  -4 -10   31.70    4.10
  -3  -4 -10   30.40    5.00
  -3  -4 -10   33.60    4.30
   3   4  10   36.90    4.00
   3   4  10   26.60    4.10
  -4  -4 -10   23.50    3.10
   4   4  10   27.90    3.10
   2  -5 -10   18.20    3.30
   2  -5 -10    9.30    2.70
  -2   5  10    4.80    4.40
  -2   5  10   10.70    3.00
   1  -5 -10    0.50    4.00
   1  -5 -10   -0.60    1.90
   1  -5 -10   11.70    7.30
  -1   5  10   -0.60    1.40
  -1   5  10   -0.10    1.70
  -1   5  10   -0.50    2.10
   0  -5 -10   31.10    5.20
   0  -5 -10   32.20    7.30
   0  -5 -10   51.99   19.50
   0   5  10   27.50    7.90
   0   5  10   29.10    4.90
   0   5  10   30.90    4.00
   0   5  10   20.10    3.80
  -1  -5 -10    8.00    5.50
  -1  -5 -10    1.20    2.60
  -1  -5 -10   -4.20    5.80
   1   5  10   -0.60    2.50
   1   5  10    1.40    2.80
   1   5  10   -1.20    7.60
   1   5  10    1.80    2.60
   1   5  10    3.50    2.30
  -2  -5 -10    9.50    5.30
  -2  -5 -10   16.50    6.00
  -2  -5 -10    4.90    2.90
   2   5  10    5.50    6.30
   2   5  10    8.80    2.70
   2   5  10   10.70    2.10
   2   5  10    6.20    4.00
  -3  -5 -10   48.00    7.20
  -3  -5 -10   46.00    9.20
  -3  -5 -10   52.39    4.90
   3   5  10   44.00    4.50
   3   5  10   55.39    4.00
   2  -6 -10   31.70    3.60
  -2   6  10   38.00    3.00
  -2   6  10   33.50    4.70
   1  -6 -10    4.70    7.00
   1  -6 -10    2.40    2.80
   1  -6 -10    3.40    2.70
  -1   6  10    1.60    1.80
  -1   6  10    1.90    2.20
  -1   6  10    1.60    3.20
  -1   6  10    1.80    1.60
   0  -6 -10   30.80    5.70
   0  -6 -10   43.20    4.60
   0  -6 -10   40.50   10.10
   0   6  10   43.80    3.80
   0   6  10   37.40    6.60
   0   6  10   44.40    4.70
   0   6  10   31.30    4.10
   0   6  10   34.20    9.60
  -1  -6 -10  101.29   14.90
  -1  -6 -10   99.89   10.90
   1   6  10  120.29    7.10
   1   6  10  122.09    9.30
   1   6  10  114.09    7.40
   1   6  10   93.79   13.00
   1   6  10   91.39    7.80
  -2  -6 -10   -1.90    4.60
  -2  -6 -10    2.60    1.90
  -2  -6 -10    3.50    6.90
   2   6  10    1.20    2.60
   2   6  10    0.10    2.80
   2   6  10   -1.60    1.90
   2   6  10   -2.40    3.80
   2   6  10    0.60    1.60
  -3  -6 -10    1.20    1.90
  -3  -6 -10    2.00    3.80
   3   6  10    0.80    3.00
   3   6  10    0.70    1.70
   3   6  10    1.30    1.90
   3   6  10    1.30    1.60
   1  -7 -10   40.90    4.90
   1  -7 -10   35.20    3.60
  -1   7  10   29.50    3.20
  -1   7  10   28.40    4.70
   0  -7 -10    3.90    4.60
   0  -7 -10    0.60    1.40
   0  -7 -10    7.60    6.90
   0   7  10    2.30    5.20
   0   7  10    0.30    1.40
   0   7  10    1.00    2.10
   0   7  10   -5.00    3.90
  -1  -7 -10  139.09   14.90
  -1  -7 -10  169.98   12.30
   1   7  10  187.08   10.60
   1   7  10  182.08   11.70
   1   7  10  148.79   13.10
   1   7  10  134.29    9.70
  -2  -7 -10   14.80    2.30
  -2  -7 -10   13.10    4.60
  -2  -7 -10   13.20    7.50
   2   7  10   18.10    3.70
   2   7  10    9.70    3.10
   2   7  10    7.80    4.20
  -1  -8 -10    5.70    3.00
   1   8  10    7.70    4.20
   0   3 -11    0.80    1.20
   0   3 -11   -1.90    2.20
   0  -3  11    2.20    1.70
  -1   3 -11   32.30    2.60
   1  -3  11   27.10    3.10
   1   2 -11   10.00    2.70
   1   2 -11   14.30    2.00
  -1  -2  11    8.90    2.30
   0   2 -11    5.50    2.40
   0  -2  11    1.50    2.60
  -1   2 -11    6.80    2.40
   1  -2  11    6.60    2.00
  -2   2 -11   25.40    2.80
   2  -2  11   24.70    3.00
   1   1 -11   21.30    3.40
   1   1 -11   20.00    4.10
  -1  -1  11   26.50    3.60
  -1  -1  11   30.20    3.40
   0   1 -11   17.50    4.50
   0  -1  11   21.20    3.60
   0  -1  11   32.60    4.10
   0  -1  11   31.10    4.10
  -1   1 -11   -1.10    2.40
   1  -1  11   -2.10    1.90
   1  -1  11    1.90    2.00
   1  -1  11    1.90    2.30
  -2   1 -11   13.60    2.90
  -2   1 -11   15.50    2.40
   2  -1  11   15.30    2.70
   2  -1  11   11.80    2.40
   3  -1  11   17.70    2.00
   3  -1  11   10.10    1.80
   2   0 -11   12.80    2.30
  -2   0  11   19.80    2.70
  -2   0  11   14.10    2.40
   1   0 -11    3.40    2.50
  -1   0  11    0.30    2.70
  -1   0  11    0.30    1.80
   0   0 -11   25.80    3.30
   0   0 -11   17.90    2.20
   0   0  11   26.10    4.10
   0   0  11   30.30    3.90
   0   0  11   26.00    3.70
  -1   0 -11   67.59    6.20
  -1   0 -11   64.49    6.10
  -1   0 -11   66.59    5.40
   1   0  11   70.09    5.90
   1   0  11   71.49    6.10
  -2   0 -11    6.40    2.40
  -2   0 -11    4.00    3.00
  -2   0 -11    4.50    1.30
   2   0  11    5.30    1.80
   2   0  11    4.50    2.20
  -3   0 -11   43.50    4.40
  -3   0 -11   49.80    4.00
   3   0  11   46.90    3.80
   2  -1 -11   15.00    2.80
  -2   1  11    8.70    1.60
  -2   1  11   14.40    2.60
   1  -1 -11   -0.70    2.50
   1  -1 -11   -1.50    1.70
  -1   1  11    1.20    1.70
  -1   1  11    2.60    3.30
   0  -1 -11    2.10    1.90
   0  -1 -11    1.40    2.00
   0   1  11    0.30    3.20
   0   1  11    1.40    2.70
   0   1  11   -3.70    2.90
  -1  -1 -11  110.99    7.90
  -1  -1 -11   89.09    7.20
  -1  -1 -11  106.59    8.10
   1   1  11   97.89    7.30
   1   1  11  105.69    7.70
  -2  -1 -11   11.30    3.50
  -2  -1 -11    5.40    2.60
  -2  -1 -11   10.60    3.30
   2   1  11   13.20    2.50
  -3  -1 -11  127.69    8.90
  -3  -1 -11  129.59    8.20
   3   1  11  132.49    8.10
   2  -2 -11   13.10    4.50
   2  -2 -11    6.30    2.10
  -2   2  11   10.90    2.50
   1  -2 -11   14.60    2.70
   1  -2 -11    6.20    3.00
  -1   2  11   12.10    2.20
   0  -2 -11   12.50    2.80
   0  -2 -11   20.40    3.00
   0   2  11   14.00    2.80
   0   2  11    9.00    2.90
   0   2  11   17.10    4.00
   0   2  11   23.20    3.90
  -1  -2 -11  168.68   10.80
  -1  -2 -11  173.68   11.00
  -1  -2 -11  187.28   12.00
   1   2  11  179.58   10.80
   1   2  11  141.99   11.10
  -2  -2 -11    1.30    1.70
  -2  -2 -11    1.40    2.40
  -2  -2 -11   -0.10    2.50
   2   2  11    0.80    1.10
   2   2  11    1.30    2.50
  -3  -2 -11  141.89    8.90
  -3  -2 -11  131.19    9.30
  -3  -2 -11  148.99    9.90
   3   2  11  158.48    9.10
   2  -3 -11   49.00    4.30
   2  -3 -11   51.89    4.10
   1  -3 -11    3.20    1.80
   1  -3 -11    5.70    3.10
   0  -3 -11   22.10    3.60
   0  -3 -11   21.40    3.20
   0   3  11   23.00    3.30
   0   3  11   19.50    3.40
   0   3  11   22.60    3.00
  -1  -3 -11  114.29    8.10
  -1  -3 -11  111.99    8.70
  -1  -3 -11  120.09    8.90
   1   3  11  131.09    8.30
  -2  -3 -11  101.09    7.30
  -2  -3 -11  101.59    7.60
   2   3  11  101.49    7.40
  -3  -3 -11    0.70    1.60
  -3  -3 -11    1.70    1.30
   3   3  11    1.30    2.10
   1  -4 -11   35.50    4.10
  -1   4  11   36.80    4.10
   0  -4 -11    4.00    2.90
   0  -4 -11    0.30    1.70
   0   4  11    1.20    1.90
   0   4  11   -1.30    1.90
   0   4  11    0.00    1.80
  -1  -4 -11   14.90    5.80
  -1  -4 -11    1.10    1.90
   1   4  11    4.70    3.10
   1   4  11    0.60    2.00
   1   4  11    1.80    1.70
  -2  -4 -11   35.00    4.70
   2   4  11   43.30    5.20
  -3  -4 -11   11.60    2.40
   3   4  11   13.30    2.30
   1  -5 -11   27.70    3.40
  -1   5  11   18.90    4.10
  -1   5  11   29.60    3.20
   0  -5 -11    3.00    2.50
   0  -5 -11    1.10    3.10
   0   5  11    4.20    1.90
   0   5  11    3.80    2.60
  -1  -5 -11    5.10    6.40
  -1  -5 -11    5.20    2.20
   1   5  11    2.00    2.20
   1   5  11    1.90    1.90
   1   5  11    2.70    1.80
  -2  -5 -11   31.70    3.60
  -2  -5 -11   21.70    4.10
   2   5  11   27.40    3.80
   2   5  11   32.00    3.20
   2   5  11   32.50    2.80
   0  -6 -11   52.09    4.40
   0  -6 -11   35.90    4.60
   0   6  11   41.10    5.50
   0   6  11   49.80    3.30
   0   6  11   45.80    3.90
  -1  -6 -11   -0.50    2.50
  -1  -6 -11    1.00    2.00
   1   6  11   -1.20    1.90
  -2  -6 -11   32.80    4.90
  -2  -6 -11   38.90    3.70
   2   6  11   40.70    3.90
   0   0 -12    0.00    1.40
   0   0  12    1.80    1.20
   0   0  12    0.40    1.20
  -1   0 -12   -0.40    2.00
   1   0  12    2.50    1.40
   1   0  12    1.00    1.20
   1   0  12    1.00    1.80
   0  -1 -12    2.10    1.60
   0   1  12    8.70    2.20
   0   1  12    1.40    0.80
  -1  -1 -12    1.20    1.00
  -1  -1 -12    2.20    1.60
   1   1  12    3.40    1.20
   1   1  12   -0.80    1.80
   1   1  12    2.00    1.80
   2   1  12   12.60    2.40
   2   1  12   15.60    2.80
   0  -2 -12   28.60    3.10
   0   2  12   39.70    4.00
  -1  -2 -12   20.20    2.60
  -1  -2 -12   23.10    2.80
   1   2  12   23.70    3.10
   1   2  12   28.10    3.10
   1   2  12   21.60    2.40
  -2  -2 -12   13.60    2.00
  -2  -2 -12    9.00    2.00
   2   2  12   11.00    2.20
   2   2  12   13.40    2.10
   0  -3 -12   53.89    4.20
   0   3  12   52.79    5.40
  -1  -3 -12    3.50    2.10
  -1  -3 -12    4.50    1.60
   1   3  12    4.30    2.10
   1   3  12    4.10    1.80
   1   3  12    6.00    2.00
  -2  -3 -12    2.40    1.50
   2   3  12    5.40    1.80
   2   3  12    3.40    1.70
   2   3  12    5.10    1.40
   1   4  12   42.10    3.40
   1   4  12   40.20    3.60
   1   4  12   36.90    3.40
   0   0   0    0.00    0.00


_computing_structure_solution     'SHELXT 2018/2 (Sheldrick, 2018)'
_computing_structure_solution     'SHELXT 2018/2 (Sheldrick, 2018)'
;
_shelx_hkl_checksum                36403
_olex2_submission_special_instructions  'No special instructions were received'
